215
-1461.16768
C     4.694000000    -1.891000000    -2.265000000
H     4.835000000    -2.908000000    -1.909000000
C     4.671000000    -0.785000000    -1.390000000
C     4.581000000     0.536000000    -1.864000000
H     4.452000000     1.372000000    -1.181000000
C     4.292000000    -0.993000000     0.088000000
O     4.559000000    -2.314000000     0.522000000
H     3.197000000    -0.907000000     0.037000000
O     4.909000000    -0.053000000     1.035000000
C     4.133000000     0.386000000     2.069000000
C     3.797000000     1.728000000     1.916000000
H     4.230000000     2.405000000     1.184000000
C     2.906000000     2.216000000     2.847000000
O     2.432000000     3.494000000     2.710000000
C     2.472000000     1.504000000     3.992000000
C     1.561000000     2.133000000     5.044000000
H     1.730000000     1.551000000     5.952000000
C     0.110000000     1.950000000     4.583000000
C    -0.543000000     0.751000000     4.983000000
H     0.010000000     0.138000000     5.689000000
H     1.837000000     3.167000000     5.263000000
C     2.704000000     0.106000000     4.029000000
H     2.245000000    -0.544000000     4.770000000
C     3.593000000    -0.405000000     3.094000000
C     4.123000000    -1.838000000     3.305000000
H     4.054000000    -2.107000000     4.361000000
H     5.150000000    -1.896000000     2.937000000
C     3.272000000    -2.851000000     2.535000000
C     2.118000000    -3.425000000     3.082000000
H     1.798000000    -3.291000000     4.113000000
C     3.523000000    -2.978000000     1.141000000
C     2.620000000    -3.613000000     0.339000000
H     2.770000000    -3.627000000    -0.737000000
C     1.519000000    -4.264000000     0.850000000
O     0.652000000    -4.811000000    -0.049000000
C    -0.404000000    -3.969000000    -0.361000000
C    -0.709000000    -4.079000000    -1.859000000
C    -1.784000000    -3.373000000    -2.310000000
H    -2.569000000    -2.947000000    -1.690000000
C     0.104000000    -4.775000000    -2.829000000
H     0.919000000    -5.396000000    -2.467000000
O    -1.634000000    -4.355000000     0.376000000
H    -0.082000000    -2.934000000    -0.172000000
C     1.241000000    -4.169000000     2.208000000
C    -0.023000000    -4.898000000     2.763000000
H     0.172000000    -5.169000000     3.802000000
H    -0.244000000    -5.819000000     2.220000000
C    -1.215000000    -3.908000000     2.792000000
C    -1.447000000    -3.063000000     3.906000000
H    -0.759000000    -3.089000000     4.747000000
C    -2.009000000    -3.742000000     1.632000000
C    -3.038000000    -2.765000000     1.608000000
H    -3.726000000    -2.786000000     0.767000000
C    -3.195000000    -1.943000000     2.703000000
O    -4.306000000    -1.096000000     2.657000000
C    -3.934000000     0.235000000     2.150000000
C    -4.814000000     0.888000000     1.077000000
C    -5.317000000     0.126000000    -0.014000000
H    -5.195000000    -0.954000000    -0.043000000
C    -5.121000000     2.254000000     1.089000000
H    -4.763000000     2.985000000     1.810000000
O    -3.831000000     1.175000000     3.267000000
H    -2.980000000     0.180000000     1.605000000
C    -2.398000000    -2.038000000     3.836000000
C    -2.465000000    -0.952000000     4.952000000
H    -2.033000000    -1.336000000     5.878000000
H    -3.472000000    -0.736000000     5.316000000
C    -1.866000000     0.473000000     4.607000000
C    -2.564000000     1.403000000     3.764000000
C    -1.930000000     2.592000000     3.499000000
H    -2.518000000     3.259000000     2.875000000
C    -0.583000000     2.841000000     3.745000000
O     0.042000000     3.927000000     3.265000000
C     0.999000000     3.667000000     2.213000000
H     0.621000000     2.743000000     1.751000000
C     0.915000000     4.767000000     1.186000000
C     1.951000000     5.030000000     0.286000000
H     2.952000000     4.681000000     0.526000000
C    -0.417000000     5.261000000     0.885000000
H    -1.263000000     4.901000000     1.465000000
C    -0.577000000     6.064000000    -0.285000000
O    -1.887000000     6.204000000    -0.841000000
C     0.477000000     6.314000000    -1.125000000
H     0.262000000     6.849000000    -2.047000000
C     1.691000000     5.686000000    -0.910000000
O     2.716000000     5.972000000    -1.856000000
C     3.758000000     5.191000000    -2.072000000
C     3.515000000     3.938000000    -2.658000000
H     2.516000000     3.738000000    -3.036000000
C     5.073000000     5.575000000    -1.709000000
H     5.341000000     6.541000000    -1.289000000
C     6.133000000     4.714000000    -2.043000000
H     7.162000000     5.043000000    -1.920000000
C     5.856000000     3.541000000    -2.587000000
H     6.774000000     2.992000000    -2.779000000
C     4.579000000     3.128000000    -2.982000000
O     4.481000000     2.008000000    -3.770000000
C     4.491000000     0.731000000    -3.233000000
C     4.504000000    -0.386000000    -4.130000000
H     4.353000000    -0.324000000    -5.205000000
C     4.695000000    -1.676000000    -3.594000000
O     4.817000000    -2.759000000    -4.371000000
C     4.127000000    -3.914000000    -4.410000000
C     2.720000000    -3.825000000    -4.653000000
H     2.238000000    -2.855000000    -4.745000000
C     4.842000000    -5.084000000    -4.321000000
H     5.927000000    -5.031000000    -4.284000000
C     4.208000000    -6.240000000    -4.675000000
H     4.806000000    -7.140000000    -4.797000000
C     2.824000000    -6.277000000    -4.909000000
H     2.398000000    -7.247000000    -5.153000000
C     2.094000000    -5.073000000    -4.899000000
O     0.699000000    -5.162000000    -5.068000000
C    -0.126000000    -4.624000000    -4.157000000
C    -1.240000000    -3.869000000    -4.598000000
H    -1.315000000    -3.763000000    -5.677000000
C    -2.058000000    -3.285000000    -3.694000000
O    -3.191000000    -2.523000000    -4.065000000
C    -4.385000000    -2.614000000    -3.392000000
C    -4.981000000    -1.422000000    -3.003000000
H    -4.499000000    -0.480000000    -3.254000000
C    -4.962000000    -3.811000000    -2.992000000
H    -4.491000000    -4.761000000    -3.233000000
C    -6.247000000    -3.822000000    -2.434000000
H    -6.669000000    -4.781000000    -2.143000000
C    -6.910000000    -2.600000000    -2.280000000
H    -7.918000000    -2.542000000    -1.879000000
C    -6.239000000    -1.393000000    -2.416000000
O    -6.789000000    -0.254000000    -1.937000000
C    -6.138000000     0.561000000    -0.965000000
C    -6.468000000     1.912000000    -0.964000000
H    -7.118000000     2.384000000    -1.696000000
C    -5.912000000     2.763000000     0.070000000
O    -6.213000000     4.108000000    -0.067000000
C    -5.284000000     5.107000000     0.146000000
C    -5.610000000     6.079000000     1.115000000
H    -6.615000000     5.925000000     1.500000000
C    -4.659000000     7.044000000     1.456000000
H    -4.831000000     7.784000000     2.234000000
C    -3.381000000     7.056000000     0.811000000
H    -2.703000000     7.891000000     0.970000000
C    -3.109000000     6.127000000    -0.151000000
C    -4.040000000     5.151000000    -0.443000000
H    -3.767000000     4.355000000    -1.131000000
C    -1.903000000     0.974000000    -1.274000000
H    -2.895000000     0.655000000    -1.584000000
C    -1.277000000     0.249000000    -0.263000000
H    -1.759000000    -0.654000000     0.104000000
C     0.037000000     0.596000000     0.159000000
H     0.403000000    -0.016000000     0.974000000
C     0.705000000     1.647000000    -0.434000000
H     1.712000000     1.859000000    -0.085000000
C     0.043000000     2.413000000    -1.409000000
H     0.579000000     3.192000000    -1.945000000
C    -1.244000000     2.080000000    -1.805000000
C    -1.836000000     2.797000000    -3.060000000
O    -1.142000000     3.542000000    -3.747000000
O    -2.983000000     2.538000000    -3.441000000
O     1.281000000     7.318000000    -6.463000000
H     1.099000000     6.644000000    -5.809000000
H     1.090000000     8.143000000    -6.016000000
O    -2.556000000     7.086000000    -6.711000000
H    -2.943000000     6.335000000    -6.261000000
H    -1.820000000     6.719000000    -7.200000000
O    -5.563000000     3.200000000    -3.734000000
H    -4.698000000     2.890000000    -3.466000000
H    -6.061000000     2.401000000    -3.909000000
O    -0.813000000     4.141000000    -7.038000000
H    -0.361000000     3.414000000    -7.466000000
H    -1.364000000     3.723000000    -6.376000000
O     0.179000000    -0.316000000    -3.295000000
H     0.332000000     0.236000000    -2.528000000
H    -0.486000000    -0.942000000    -3.010000000
O     0.042000000     1.835000000    -8.439000000
H     0.985000000     1.674000000    -8.479000000
H    -0.233000000     1.442000000    -7.610000000
O    -3.416000000     5.593000000    -4.516000000
H    -4.265000000     5.171000000    -4.379000000
H    -2.778000000     4.955000000    -4.195000000
O    -4.108000000     8.178000000    -3.285000000
H    -3.816000000     7.308000000    -3.556000000
H    -3.355000000     8.746000000    -3.450000000
O    -7.076000000     0.964000000    -4.605000000
H    -6.765000000     0.299000000    -3.990000000
H    -6.483000000     0.895000000    -5.352000000
O    -4.924000000     1.256000000    -6.404000000
H    -4.065000000     1.489000000    -6.053000000
H    -4.781000000     1.160000000    -7.346000000
O    -7.125000000     5.338000000    -4.203000000
H    -7.010000000     5.931000000    -3.461000000
H    -6.669000000     4.538000000    -3.944000000
O    -2.375000000     1.640000000    -5.907000000
H    -2.412000000     1.963000000    -5.007000000
H    -1.608000000     1.067000000    -5.924000000
O     3.330000000     3.975000000    -6.644000000
H     3.932000000     4.208000000    -5.937000000
H     2.546000000     4.496000000    -6.473000000
O    -5.660000000     3.795000000    -7.852000000
H    -5.592000000     3.610000000    -6.916000000
H    -5.484000000     4.733000000    -7.924000000
O    -0.444000000     6.615000000    -8.465000000
H     0.204000000     7.010000000    -7.882000000
H    -0.441000000     5.687000000    -8.234000000
O    -4.135000000     1.654000000    -9.072000000
H    -3.391000000     2.002000000    -9.565000000
H    -4.495000000     2.414000000    -8.614000000
O     0.825000000     4.923000000    -4.895000000
H     0.279000000     4.587000000    -4.185000000
H     0.308000000     4.774000000    -5.686000000
O    -0.136000000     0.009000000    -5.877000000
H     0.067000000     0.005000000    -4.941000000
H     0.435000000    -0.664000000    -6.248000000
O    -2.620000000    -1.728000000    -6.991000000
H    -2.835000000    -0.802000000    -6.880000000
H    -3.041000000    -2.163000000    -6.250000000
