215
-1425.46591
C     3.741000000    -2.150000000    -3.057000000
H     3.313000000    -3.025000000    -2.574000000
C     4.258000000    -1.145000000    -2.299000000
C     4.627000000     0.052000000    -2.909000000
H     4.873000000     0.868000000    -2.234000000
C     4.223000000    -1.271000000    -0.765000000
O     4.336000000    -2.640000000    -0.345000000
H     3.225000000    -0.909000000    -0.478000000
O     5.242000000    -0.440000000    -0.077000000
C     4.680000000     0.267000000     1.011000000
C     4.166000000     1.524000000     0.819000000
H     4.217000000     1.890000000    -0.203000000
C     3.459000000     2.193000000     1.751000000
O     2.933000000     3.404000000     1.387000000
C     3.369000000     1.697000000     3.092000000
C     2.661000000     2.436000000     4.193000000
H     2.885000000     2.159000000     5.226000000
C     1.187000000     2.407000000     4.072000000
C     0.513000000     1.419000000     4.720000000
H     0.962000000     0.653000000     5.347000000
H     3.082000000     3.444000000     4.206000000
C     3.944000000     0.418000000     3.324000000
H     4.073000000    -0.008000000     4.316000000
C     4.449000000    -0.345000000     2.245000000
C     4.820000000    -1.809000000     2.395000000
H     5.257000000    -2.032000000     3.371000000
H     5.623000000    -2.022000000     1.686000000
C     3.675000000    -2.685000000     1.960000000
C     2.641000000    -3.093000000     2.848000000
H     2.605000000    -2.626000000     3.829000000
C     3.496000000    -3.106000000     0.659000000
C     2.486000000    -3.932000000     0.264000000
H     2.382000000    -4.297000000    -0.755000000
C     1.479000000    -4.413000000     1.168000000
O     0.289000000    -4.912000000     0.695000000
C    -0.921000000    -4.132000000     0.499000000
C    -1.550000000    -4.390000000    -0.889000000
C    -2.836000000    -3.912000000    -1.058000000
H    -3.344000000    -3.485000000    -0.197000000
C    -0.821000000    -4.974000000    -1.927000000
H     0.243000000    -5.154000000    -1.792000000
O    -1.870000000    -4.279000000     1.560000000
H    -0.678000000    -3.059000000     0.500000000
C     1.595000000    -3.905000000     2.464000000
C     0.543000000    -4.239000000     3.457000000
H     1.037000000    -4.275000000     4.431000000
H     0.115000000    -5.233000000     3.314000000
C    -0.653000000    -3.256000000     3.444000000
C    -0.591000000    -2.191000000     4.330000000
H     0.195000000    -2.117000000     5.077000000
C    -1.717000000    -3.338000000     2.555000000
C    -2.736000000    -2.359000000     2.588000000
H    -3.529000000    -2.406000000     1.847000000
C    -2.711000000    -1.270000000     3.454000000
O    -3.676000000    -0.313000000     3.306000000
C    -3.352000000     0.942000000     2.605000000
C    -4.450000000     1.375000000     1.699000000
C    -5.271000000     0.445000000     1.168000000
H    -5.147000000    -0.599000000     1.444000000
C    -4.438000000     2.659000000     1.163000000
H    -3.647000000     3.348000000     1.450000000
O    -2.981000000     1.922000000     3.572000000
H    -2.438000000     0.804000000     2.009000000
C    -1.582000000    -1.156000000     4.345000000
C    -1.475000000    -0.033000000     5.300000000
H    -0.924000000    -0.449000000     6.145000000
H    -2.451000000     0.304000000     5.655000000
C    -0.854000000     1.183000000     4.558000000
C    -1.625000000     2.135000000     3.865000000
C    -0.994000000     3.228000000     3.316000000
H    -1.424000000     3.914000000     2.590000000
C     0.379000000     3.314000000     3.314000000
O     0.968000000     4.043000000     2.311000000
C     1.492000000     3.381000000     1.212000000
H     1.090000000     2.373000000     1.033000000
C     1.143000000     4.217000000    -0.027000000
C     2.004000000     4.235000000    -1.142000000
H     2.888000000     3.609000000    -1.231000000
C    -0.108000000     4.949000000    -0.083000000
H    -0.692000000     4.921000000     0.834000000
C    -0.413000000     5.705000000    -1.222000000
O    -1.485000000     6.549000000    -1.176000000
C     0.551000000     5.860000000    -2.280000000
H     0.281000000     6.513000000    -3.107000000
C     1.680000000     5.042000000    -2.252000000
O     2.398000000     5.150000000    -3.393000000
C     3.615000000     4.576000000    -3.501000000
C     3.689000000     3.258000000    -4.081000000
H     2.772000000     2.824000000    -4.471000000
C     4.780000000     5.125000000    -3.051000000
H     4.656000000     5.955000000    -2.361000000
C     5.954000000     4.434000000    -2.940000000
H     6.813000000     4.809000000    -2.390000000
C     5.988000000     3.177000000    -3.532000000
H     6.868000000     2.561000000    -3.699000000
C     4.868000000     2.594000000    -4.081000000
O     4.985000000     1.367000000    -4.792000000
C     4.508000000     0.185000000    -4.287000000
C     4.046000000    -0.858000000    -5.072000000
H     4.021000000    -0.735000000    -6.151000000
C     3.660000000    -2.049000000    -4.494000000
O     3.272000000    -3.095000000    -5.295000000
C     2.587000000    -4.139000000    -4.744000000
C     1.181000000    -4.234000000    -4.870000000
H     0.469000000    -3.541000000    -5.310000000
C     3.397000000    -5.164000000    -4.370000000
H     4.436000000    -5.100000000    -4.058000000
C     2.770000000    -6.334000000    -3.783000000
H     3.343000000    -7.215000000    -3.507000000
C     1.407000000    -6.449000000    -3.848000000
H     0.893000000    -7.220000000    -3.279000000
C     0.633000000    -5.385000000    -4.333000000
O    -0.707000000    -5.486000000    -4.305000000
C    -1.496000000    -5.036000000    -3.205000000
C    -2.756000000    -4.484000000    -3.355000000
H    -3.046000000    -4.383000000    -4.397000000
C    -3.446000000    -3.965000000    -2.302000000
O    -4.690000000    -3.453000000    -2.562000000
C    -5.664000000    -3.125000000    -1.626000000
C    -5.919000000    -1.821000000    -1.405000000
H    -5.318000000    -1.090000000    -1.940000000
C    -6.498000000    -4.115000000    -1.063000000
H    -6.399000000    -5.155000000    -1.362000000
C    -7.416000000    -3.702000000    -0.163000000
H    -8.113000000    -4.438000000     0.229000000
C    -7.706000000    -2.397000000     0.137000000
H    -8.525000000    -2.169000000     0.814000000
C    -6.912000000    -1.431000000    -0.491000000
O    -7.209000000    -0.125000000    -0.317000000
C    -6.223000000     0.798000000     0.148000000
C    -6.307000000     2.132000000    -0.234000000
H    -6.996000000     2.425000000    -1.022000000
C    -5.359000000     3.040000000     0.160000000
O    -5.533000000     4.355000000    -0.313000000
C    -4.680000000     5.405000000     0.034000000
C    -4.922000000     6.326000000     1.109000000
H    -5.888000000     6.264000000     1.603000000
C    -3.926000000     7.166000000     1.447000000
H    -4.097000000     7.875000000     2.252000000
C    -2.781000000     7.181000000     0.654000000
H    -1.973000000     7.871000000     0.883000000
C    -2.634000000     6.453000000    -0.482000000
C    -3.499000000     5.473000000    -0.714000000
H    -3.298000000     4.719000000    -1.470000000
C    -1.629000000     0.030000000    -1.666000000
H    -2.629000000    -0.362000000    -1.497000000
C    -0.684000000    -0.206000000    -0.619000000
H    -1.018000000    -0.695000000     0.293000000
C     0.552000000     0.355000000    -0.783000000
H     1.223000000     0.176000000     0.056000000
C     0.957000000     1.163000000    -1.865000000
H     1.986000000     1.485000000    -2.006000000
C    -0.013000000     1.408000000    -2.884000000
H     0.315000000     2.060000000    -3.689000000
C    -1.341000000     0.851000000    -2.805000000
C    -2.363000000     1.088000000    -3.874000000
O    -2.140000000     1.944000000    -4.707000000
O    -3.393000000     0.575000000    -3.878000000
O    -4.103000000    -1.968000000    -7.800000000
H    -3.198000000    -2.163000000    -8.044000000
H    -4.097000000    -1.960000000    -6.843000000
O    -7.946000000     0.712000000    -4.710000000
H    -7.752000000     1.649000000    -4.720000000
H    -7.386000000     0.344000000    -5.394000000
O    -5.535000000     1.874000000    -2.930000000
H    -4.959000000     1.358000000    -3.495000000
H    -5.905000000     1.236000000    -2.319000000
O    -1.088000000    -0.289000000    -6.427000000
H    -1.420000000    -0.825000000    -5.707000000
H    -1.351000000     0.603000000    -6.203000000
O    -4.966000000     3.452000000    -8.895000000
H    -4.681000000     4.306000000    -9.221000000
H    -4.438000000     3.308000000    -8.109000000
O    -6.654000000     6.391000000    -2.031000000
H    -5.873000000     5.952000000    -2.369000000
H    -6.871000000     5.913000000    -1.231000000
O    -1.626000000     0.282000000   -10.322000000
H    -1.128000000     0.770000000   -10.977000000
H    -1.971000000     0.954000000    -9.734000000
O    -4.290000000     2.563000000    -6.328000000
H    -3.656000000     2.200000000    -5.709000000
H    -4.972000000     1.895000000    -6.392000000
O    -5.833000000     4.796000000    -6.316000000
H    -5.233000000     4.074000000    -6.127000000
H    -5.264000000     5.511000000    -6.602000000
O    -1.466000000    -1.857000000    -8.703000000
H    -1.252000000    -1.289000000    -7.962000000
H    -1.632000000    -1.253000000    -9.427000000
O    -1.222000000     7.113000000    -5.746000000
H    -1.269000000     6.311000000    -5.226000000
H    -1.852000000     6.977000000    -6.454000000
O    -4.913000000     4.620000000    -3.347000000
H    -5.106000000     3.802000000    -2.889000000
H    -5.196000000     4.463000000    -4.248000000
O    -3.436000000    -1.671000000    -5.204000000
H    -3.388000000    -2.166000000    -4.387000000
H    -3.598000000    -0.768000000    -4.929000000
O     1.913000000     0.757000000    -7.255000000
H     1.224000000     0.120000000    -7.446000000
H     2.179000000     1.087000000    -8.113000000
O    -1.439000000     3.130000000    -9.583000000
H    -1.644000000     3.783000000    -8.914000000
H    -0.716000000     3.515000000   -10.079000000
O     1.588000000     3.699000000    -6.872000000
H     0.829000000     3.555000000    -6.307000000
H     1.919000000     2.820000000    -7.057000000
O    -7.876000000     3.092000000    -6.098000000
H    -7.679000000     2.631000000    -6.914000000
H    -7.207000000     3.774000000    -6.041000000
O    -2.014000000     4.743000000    -4.620000000
H    -1.970000000     3.827000000    -4.895000000
H    -2.561000000     4.732000000    -3.835000000
O    -6.085000000     0.267000000    -7.120000000
H    -5.850000000    -0.657000000    -7.206000000
H    -6.338000000     0.534000000    -8.004000000
