215
-1452.11093
C     3.168000000    -2.077000000    -3.288000000
H     2.752000000    -3.021000000    -2.944000000
C     3.816000000    -1.185000000    -2.463000000
C     4.443000000    -0.087000000    -2.951000000
H     5.001000000     0.590000000    -2.309000000
C     3.730000000    -1.492000000    -0.958000000
O     3.689000000    -2.862000000    -0.631000000
H     2.875000000    -0.919000000    -0.568000000
O     4.879000000    -0.981000000    -0.210000000
C     4.567000000    -0.476000000     1.027000000
C     4.474000000     0.870000000     1.072000000
H     4.593000000     1.522000000     0.210000000
C     4.021000000     1.502000000     2.243000000
O     3.574000000     2.790000000     2.084000000
C     3.726000000     0.823000000     3.421000000
C     2.985000000     1.504000000     4.626000000
H     3.200000000     0.955000000     5.545000000
C     1.493000000     1.594000000     4.582000000
C     0.644000000     0.626000000     5.190000000
H     1.095000000    -0.236000000     5.674000000
H     3.369000000     2.497000000     4.867000000
C     3.989000000    -0.567000000     3.379000000
H     3.864000000    -1.214000000     4.243000000
C     4.382000000    -1.234000000     2.238000000
C     4.381000000    -2.731000000     2.216000000
H     4.750000000    -3.113000000     3.170000000
H     5.186000000    -3.096000000     1.575000000
C     3.092000000    -3.355000000     1.734000000
C     2.053000000    -3.715000000     2.606000000
H     2.143000000    -3.410000000     3.645000000
C     2.932000000    -3.511000000     0.351000000
C     1.697000000    -4.027000000    -0.075000000
H     1.580000000    -4.075000000    -1.155000000
C     0.742000000    -4.463000000     0.842000000
O    -0.470000000    -4.808000000     0.300000000
C    -1.353000000    -3.675000000     0.170000000
C    -2.060000000    -3.744000000    -1.234000000
C    -3.150000000    -2.910000000    -1.534000000
H    -3.383000000    -2.138000000    -0.805000000
C    -1.543000000    -4.554000000    -2.257000000
H    -0.638000000    -5.153000000    -2.182000000
O    -2.408000000    -3.859000000     1.165000000
H    -0.868000000    -2.696000000     0.306000000
C     0.916000000    -4.275000000     2.200000000
C    -0.295000000    -4.564000000     3.159000000
H     0.096000000    -4.894000000     4.124000000
H    -0.924000000    -5.359000000     2.751000000
C    -1.253000000    -3.400000000     3.253000000
C    -1.009000000    -2.583000000     4.346000000
H    -0.167000000    -2.819000000     4.991000000
C    -2.282000000    -3.153000000     2.354000000
C    -3.138000000    -2.078000000     2.631000000
H    -3.934000000    -1.857000000     1.924000000
C    -2.933000000    -1.227000000     3.711000000
O    -3.764000000    -0.115000000     3.858000000
C    -3.222000000     1.082000000     3.288000000
C    -4.301000000     1.681000000     2.435000000
C    -5.069000000     0.945000000     1.547000000
H    -4.847000000    -0.112000000     1.420000000
C    -4.356000000     3.031000000     2.337000000
H    -3.710000000     3.684000000     2.919000000
O    -2.666000000     1.927000000     4.304000000
H    -2.402000000     0.901000000     2.577000000
C    -1.824000000    -1.447000000     4.564000000
C    -1.605000000    -0.452000000     5.688000000
H    -1.125000000    -0.965000000     6.524000000
H    -2.541000000    -0.188000000     6.185000000
C    -0.742000000     0.671000000     5.150000000
C    -1.303000000     1.856000000     4.541000000
C    -0.501000000     2.764000000     3.872000000
H    -1.003000000     3.504000000     3.253000000
C     0.876000000     2.654000000     3.925000000
O     1.606000000     3.508000000     3.095000000
C     2.179000000     3.031000000     1.870000000
H     1.664000000     2.071000000     1.720000000
C     1.954000000     3.868000000     0.589000000
C     2.941000000     4.179000000    -0.429000000
H     3.985000000     3.930000000    -0.258000000
C     0.652000000     4.318000000     0.437000000
H    -0.099000000     4.139000000     1.203000000
C     0.224000000     4.849000000    -0.762000000
O    -1.031000000     5.304000000    -0.922000000
C     1.138000000     5.002000000    -1.802000000
H     0.808000000     5.607000000    -2.642000000
C     2.471000000     4.643000000    -1.695000000
O     3.437000000     5.133000000    -2.599000000
C     4.286000000     4.453000000    -3.435000000
C     4.141000000     3.084000000    -3.639000000
H     3.208000000     2.600000000    -3.360000000
C     5.376000000     5.189000000    -3.880000000
H     5.430000000     6.226000000    -3.558000000
C     6.370000000     4.570000000    -4.598000000
H     7.214000000     5.099000000    -5.033000000
C     6.186000000     3.269000000    -4.985000000
H     6.878000000     2.807000000    -5.685000000
C     5.139000000     2.500000000    -4.508000000
O     5.140000000     1.176000000    -4.876000000
C     4.443000000     0.103000000    -4.368000000
C     3.809000000    -0.700000000    -5.196000000
H     3.881000000    -0.621000000    -6.278000000
C     3.153000000    -1.845000000    -4.691000000
O     2.581000000    -2.698000000    -5.551000000
C     1.903000000    -3.895000000    -5.227000000
C     0.547000000    -3.932000000    -5.074000000
H     0.029000000    -3.001000000    -5.286000000
C     2.603000000    -5.105000000    -5.276000000
H     3.636000000    -5.128000000    -5.615000000
C     1.969000000    -6.342000000    -5.168000000
H     2.533000000    -7.269000000    -5.114000000
C     0.599000000    -6.358000000    -4.887000000
H     0.095000000    -7.310000000    -4.747000000
C    -0.065000000    -5.145000000    -4.756000000
O    -1.373000000    -5.216000000    -4.539000000
C    -1.963000000    -4.461000000    -3.552000000
C    -3.096000000    -3.650000000    -3.852000000
H    -3.487000000    -3.567000000    -4.863000000
C    -3.716000000    -2.956000000    -2.825000000
O    -4.714000000    -2.078000000    -3.074000000
C    -5.646000000    -1.871000000    -2.104000000
C    -5.716000000    -0.633000000    -1.369000000
H    -4.929000000     0.085000000    -1.585000000
C    -6.580000000    -2.866000000    -1.914000000
H    -6.504000000    -3.838000000    -2.395000000
C    -7.497000000    -2.715000000    -0.852000000
H    -8.103000000    -3.554000000    -0.522000000
C    -7.632000000    -1.488000000    -0.151000000
H    -8.429000000    -1.375000000     0.580000000
C    -6.759000000    -0.448000000    -0.458000000
O    -6.962000000     0.807000000     0.081000000
C    -6.079000000     1.526000000     0.829000000
C    -6.209000000     2.926000000     0.870000000
H    -7.060000000     3.415000000     0.404000000
C    -5.211000000     3.669000000     1.573000000
O    -5.127000000     5.034000000     1.511000000
C    -3.961000000     5.702000000     1.259000000
C    -3.818000000     7.042000000     1.642000000
H    -4.599000000     7.473000000     2.262000000
C    -2.702000000     7.829000000     1.150000000
H    -2.522000000     8.827000000     1.540000000
C    -1.743000000     7.182000000     0.349000000
H    -0.865000000     7.640000000    -0.099000000
C    -1.877000000     5.815000000     0.021000000
C    -3.009000000     5.160000000     0.393000000
H    -3.101000000     4.172000000    -0.051000000
C    -2.122000000     0.837000000    -0.724000000
H    -3.163000000     0.730000000    -0.430000000
C    -1.176000000     0.172000000     0.112000000
H    -1.460000000    -0.445000000     0.961000000
C     0.166000000     0.176000000    -0.228000000
H     0.934000000    -0.290000000     0.353000000
C     0.549000000     0.972000000    -1.243000000
H     1.624000000     1.035000000    -1.392000000
C    -0.366000000     1.672000000    -2.012000000
H     0.101000000     2.259000000    -2.799000000
C    -1.718000000     1.581000000    -1.847000000
C    -2.569000000     2.320000000    -2.841000000
O    -2.061000000     2.699000000    -3.867000000
O    -3.816000000     2.251000000    -2.759000000
O    -3.319000000    -1.816000000    -6.769000000
H    -2.714000000    -2.064000000    -7.468000000
H    -2.780000000    -1.324000000    -6.149000000
O    -7.516000000    -0.412000000    -3.870000000
H    -7.364000000    -0.821000000    -3.018000000
H    -6.639000000    -0.219000000    -4.202000000
O    -1.953000000     6.955000000    -6.861000000
H    -1.940000000     7.892000000    -7.057000000
H    -2.196000000     6.908000000    -5.936000000
O    -5.114000000     2.463000000    -5.116000000
H    -4.557000000     2.362000000    -4.344000000
H    -5.422000000     1.577000000    -5.306000000
O     0.303000000     2.318000000    -5.454000000
H    -0.265000000     2.154000000    -6.207000000
H    -0.301000000     2.460000000    -4.725000000
O    -4.817000000     5.805000000    -2.297000000
H    -5.516000000     5.270000000    -2.674000000
H    -5.207000000     6.191000000    -1.513000000
O    -2.293000000     3.603000000    -6.327000000
H    -1.702000000     4.353000000    -6.260000000
H    -2.427000000     3.322000000    -5.422000000
O    -5.362000000     4.232000000    -7.299000000
H    -5.376000000     3.293000000    -7.115000000
H    -4.670000000     4.576000000    -6.734000000
O    -0.782000000     7.192000000    -4.163000000
H    -1.461000000     6.574000000    -3.892000000
H    -0.120000000     6.649000000    -4.591000000
O    -6.387000000     3.240000000    -2.778000000
H    -5.474000000     3.051000000    -2.560000000
H    -6.429000000     3.149000000    -3.730000000
O    -2.229000000    -0.191000000    -4.964000000
H    -1.554000000    -0.250000000    -4.289000000
H    -2.183000000     0.714000000    -5.271000000
O     2.576000000     3.426000000    -6.449000000
H     1.853000000     2.980000000    -6.009000000
H     2.683000000     2.953000000    -7.275000000
O    -3.010000000     1.303000000    -7.588000000
H    -2.257000000     1.068000000    -8.130000000
H    -2.843000000     2.208000000    -7.325000000
O     0.858000000     5.656000000    -5.614000000
H     1.308000000     4.820000000    -5.736000000
H     0.828000000     6.042000000    -6.489000000
O    -8.739000000     2.020000000    -2.578000000
H    -8.227000000     1.231000000    -2.761000000
H    -8.098000000     2.731000000    -2.600000000
O    -2.613000000     5.475000000    -3.643000000
H    -2.440000000     4.542000000    -3.765000000
H    -3.366000000     5.504000000    -3.053000000
O    -5.233000000    -0.323000000    -5.330000000
H    -4.640000000    -0.680000000    -4.668000000
H    -4.938000000    -0.714000000    -6.152000000
O    -3.543000000     7.924000000    -4.184000000
H    -3.280000000     7.004000000    -4.148000000
H    -4.461000000     7.901000000    -4.452000000
O    -5.868000000     1.414000000    -8.198000000
H    -5.831000000     1.457000000    -9.153000000
H    -4.952000000     1.375000000    -7.924000000
