215
-1469.42258
C     3.033000000    -2.896000000    -3.145000000
H     2.362000000    -3.643000000    -2.728000000
C     3.833000000    -2.132000000    -2.180000000
C     4.603000000    -1.148000000    -2.766000000
H     5.053000000    -0.385000000    -2.136000000
C     3.576000000    -2.229000000    -0.711000000
O     3.538000000    -3.577000000    -0.179000000
H     2.622000000    -1.712000000    -0.529000000
O     4.620000000    -1.501000000    -0.062000000
C     4.318000000    -0.772000000     1.072000000
C     4.222000000     0.537000000     0.789000000
H     4.372000000     0.852000000    -0.241000000
C     3.806000000     1.427000000     1.705000000
O     3.504000000     2.675000000     1.149000000
C     3.651000000     1.086000000     3.036000000
C     3.143000000     2.049000000     4.048000000
H     3.489000000     1.931000000     5.077000000
C     1.647000000     2.175000000     3.974000000
C     0.799000000     1.414000000     4.776000000
H     1.261000000     0.794000000     5.540000000
H     3.543000000     3.051000000     3.878000000
C     3.742000000    -0.254000000     3.357000000
H     3.526000000    -0.597000000     4.366000000
C     4.146000000    -1.246000000     2.375000000
C     4.141000000    -2.779000000     2.636000000
H     4.333000000    -2.978000000     3.692000000
H     5.049000000    -3.159000000     2.163000000
C     2.866000000    -3.435000000     2.134000000
C     1.806000000    -3.511000000     3.024000000
H     1.956000000    -3.230000000     4.063000000
C     2.649000000    -3.864000000     0.816000000
C     1.445000000    -4.430000000     0.370000000
H     1.195000000    -4.672000000    -0.659000000
C     0.378000000    -4.489000000     1.286000000
O    -0.836000000    -4.805000000     0.824000000
C    -1.763000000    -3.706000000     0.569000000
C    -2.489000000    -3.700000000    -0.764000000
C    -3.661000000    -2.983000000    -0.892000000
H    -4.021000000    -2.427000000    -0.030000000
C    -1.939000000    -4.520000000    -1.811000000
H    -0.977000000    -5.009000000    -1.684000000
O    -2.707000000    -3.652000000     1.694000000
H    -1.146000000    -2.797000000     0.518000000
C     0.600000000    -4.053000000     2.659000000
C    -0.455000000    -4.057000000     3.691000000
H    -0.029000000    -4.086000000     4.697000000
H    -0.941000000    -5.011000000     3.477000000
C    -1.412000000    -2.892000000     3.658000000
C    -1.222000000    -1.937000000     4.655000000
H    -0.421000000    -1.949000000     5.390000000
C    -2.460000000    -2.772000000     2.728000000
C    -3.250000000    -1.633000000     2.743000000
H    -4.135000000    -1.582000000     2.115000000
C    -2.925000000    -0.586000000     3.633000000
O    -3.730000000     0.528000000     3.613000000
C    -3.179000000     1.649000000     2.863000000
C    -4.157000000     2.387000000     2.006000000
C    -5.272000000     1.671000000     1.541000000
H    -5.475000000     0.667000000     1.905000000
C    -3.885000000     3.690000000     1.532000000
H    -2.983000000     4.210000000     1.844000000
O    -2.477000000     2.509000000     3.722000000
H    -2.396000000     1.252000000     2.200000000
C    -1.866000000    -0.695000000     4.546000000
C    -1.458000000     0.455000000     5.402000000
H    -0.997000000     0.210000000     6.361000000
H    -2.314000000     0.993000000     5.816000000
C    -0.548000000     1.492000000     4.710000000
C    -1.137000000     2.415000000     3.832000000
C    -0.309000000     3.228000000     3.062000000
H    -0.763000000     3.778000000     2.241000000
C     1.051000000     3.043000000     3.055000000
O     1.709000000     3.677000000     1.999000000
C     2.158000000     2.923000000     0.846000000
H     1.724000000     1.923000000     0.697000000
C     1.936000000     3.705000000    -0.450000000
C     2.757000000     3.516000000    -1.535000000
H     3.596000000     2.834000000    -1.424000000
C     0.978000000     4.673000000    -0.589000000
H     0.364000000     4.959000000     0.262000000
C     0.657000000     5.242000000    -1.834000000
O    -0.406000000     6.083000000    -1.991000000
C     1.615000000     5.098000000    -2.870000000
H     1.411000000     5.623000000    -3.799000000
C     2.622000000     4.209000000    -2.739000000
O     3.536000000     4.100000000    -3.763000000
C     4.627000000     3.385000000    -3.717000000
C     4.512000000     2.067000000    -4.135000000
H     3.519000000     1.750000000    -4.443000000
C     5.877000000     3.930000000    -3.358000000
H     5.996000000     4.982000000    -3.111000000
C     6.999000000     3.184000000    -3.524000000
H     8.016000000     3.543000000    -3.384000000
C     6.885000000     1.858000000    -3.903000000
H     7.785000000     1.251000000    -3.958000000
C     5.639000000     1.291000000    -4.245000000
O     5.504000000    -0.007000000    -4.615000000
C     4.682000000    -0.953000000    -4.127000000
C     4.061000000    -1.801000000    -5.000000000
H     4.130000000    -1.671000000    -6.077000000
C     3.121000000    -2.650000000    -4.538000000
O     2.221000000    -3.312000000    -5.297000000
C     1.503000000    -4.429000000    -5.004000000
C     0.084000000    -4.279000000    -4.738000000
H    -0.362000000    -3.290000000    -4.813000000
C     2.015000000    -5.748000000    -5.035000000
H     3.086000000    -5.863000000    -5.182000000
C     1.221000000    -6.831000000    -4.653000000
H     1.666000000    -7.822000000    -4.661000000
C    -0.128000000    -6.605000000    -4.273000000
H    -0.736000000    -7.467000000    -4.009000000
C    -0.653000000    -5.339000000    -4.302000000
O    -2.012000000    -5.274000000    -4.119000000
C    -2.566000000    -4.535000000    -3.048000000
C    -3.668000000    -3.752000000    -3.228000000
H    -4.154000000    -3.750000000    -4.200000000
C    -4.249000000    -3.039000000    -2.189000000
O    -5.281000000    -2.170000000    -2.440000000
C    -6.052000000    -1.678000000    -1.421000000
C    -6.172000000    -0.284000000    -1.255000000
H    -5.549000000     0.410000000    -1.813000000
C    -6.699000000    -2.496000000    -0.541000000
H    -6.639000000    -3.578000000    -0.624000000
C    -7.464000000    -2.003000000     0.537000000
H    -7.971000000    -2.643000000     1.254000000
C    -7.669000000    -0.653000000     0.697000000
H    -8.309000000    -0.179000000     1.437000000
C    -6.981000000     0.182000000    -0.229000000
O    -7.077000000     1.556000000    -0.098000000
C    -6.051000000     2.248000000     0.540000000
C    -5.834000000     3.540000000     0.133000000
H    -6.501000000     3.949000000    -0.622000000
C    -4.752000000     4.242000000     0.591000000
O    -4.613000000     5.582000000     0.207000000
C    -3.388000000     6.205000000     0.206000000
C    -2.875000000     6.901000000     1.311000000
H    -3.603000000     6.979000000     2.114000000
C    -1.549000000     7.369000000     1.269000000
H    -1.215000000     8.043000000     2.054000000
C    -0.762000000     7.237000000     0.121000000
H     0.230000000     7.680000000     0.104000000
C    -1.224000000     6.356000000    -0.903000000
C    -2.564000000     5.917000000    -0.921000000
H    -2.928000000     5.262000000    -1.708000000
C    -1.263000000     1.266000000    -0.933000000
H    -1.729000000     2.205000000    -0.645000000
C    -0.573000000     0.577000000     0.142000000
H    -0.513000000     1.046000000     1.120000000
C     0.052000000    -0.645000000    -0.159000000
H     0.554000000    -1.169000000     0.711000000
C    -0.091000000    -1.152000000    -1.491000000
H     0.377000000    -2.102000000    -1.736000000
C    -0.807000000    -0.512000000    -2.476000000
H    -0.913000000    -1.041000000    -3.420000000
C    -1.398000000     0.752000000    -2.229000000
C    -2.178000000     1.395000000    -3.335000000
O    -1.746000000     1.175000000    -4.456000000
O    -2.983000000     2.318000000    -3.117000000
O    -0.323000000    -2.512000000    -7.656000000
H    -0.190000000    -1.701000000    -7.165000000
H    -1.171000000    -2.395000000    -8.086000000
O    -3.660000000    -1.900000000    -6.660000000
H    -3.034000000    -1.189000000    -6.519000000
H    -4.220000000    -1.589000000    -7.370000000
O    -8.125000000    -2.416000000    -3.813000000
H    -7.477000000    -3.008000000    -4.195000000
H    -7.789000000    -1.540000000    -4.002000000
O    -1.591000000     6.583000000    -5.070000000
H    -2.169000000     5.910000000    -4.712000000
H    -0.774000000     6.122000000    -5.259000000
O    -5.581000000     3.690000000    -6.832000000
H    -6.426000000     3.771000000    -6.390000000
H    -5.263000000     2.822000000    -6.584000000
O    -5.624000000     2.412000000    -3.459000000
H    -4.679000000     2.475000000    -3.318000000
H    -5.955000000     3.287000000    -3.257000000
O     0.988000000     2.209000000    -4.357000000
H     0.051000000     2.123000000    -4.530000000
H     1.122000000     1.743000000    -3.531000000
O    -0.629000000     2.024000000    -8.090000000
H     0.189000000     1.717000000    -8.482000000
H    -0.557000000     2.979000000    -8.102000000
O    -4.186000000     1.493000000    -5.553000000
H    -4.706000000     1.555000000    -4.752000000
H    -3.345000000     1.138000000    -5.265000000
O    -7.635000000     0.545000000    -3.841000000
H    -6.956000000     1.098000000    -3.456000000
H    -8.433000000     0.782000000    -3.368000000
O    -0.473000000     4.773000000    -8.114000000
H    -1.344000000     4.736000000    -7.718000000
H     0.127000000     4.599000000    -7.389000000
O    -1.502000000    -0.097000000    -6.718000000
H    -1.215000000     0.607000000    -7.300000000
H    -1.689000000     0.340000000    -5.887000000
O    -5.223000000     5.956000000    -3.471000000
H    -5.078000000     6.420000000    -2.646000000
H    -5.741000000     6.562000000    -3.999000000
O    -3.051000000     4.660000000    -7.281000000
H    -2.945000000     4.341000000    -6.384000000
H    -3.969000000     4.487000000    -7.489000000
O    -3.810000000     1.476000000    -8.697000000
H    -3.102000000     1.953000000    -9.131000000
H    -3.528000000     1.408000000    -7.785000000
O     1.149000000     4.630000000    -6.035000000
H     1.027000000     3.813000000    -5.550000000
H     1.935000000     4.481000000    -6.561000000
O    -5.037000000    -0.895000000    -8.896000000
H    -4.853000000     0.044000000    -8.914000000
H    -4.477000000    -1.262000000    -9.580000000
O    -3.059000000     4.552000000    -4.278000000
H    -2.941000000     3.711000000    -3.837000000
H    -3.856000000     4.916000000    -3.892000000
O    -6.020000000    -1.310000000    -5.151000000
H    -5.201000000    -1.797000000    -5.244000000
H    -5.748000000    -0.435000000    -4.873000000
