215
-1454.86025
C    -2.917000000     1.272000000    -4.118000000
H    -3.038000000     0.192000000    -4.100000000
C    -1.643000000     1.824000000    -4.173000000
C    -1.475000000     3.217000000    -4.111000000
H    -0.480000000     3.653000000    -4.153000000
C    -0.392000000     0.923000000    -4.205000000
O    -0.615000000    -0.373000000    -4.793000000
H    -0.070000000     0.890000000    -3.154000000
O     0.675000000     1.591000000    -4.875000000
C     1.909000000     1.489000000    -4.280000000
C     2.262000000     2.517000000    -3.460000000
H     1.716000000     3.453000000    -3.548000000
C     3.263000000     2.425000000    -2.471000000
O     3.289000000     3.395000000    -1.508000000
C     4.046000000     1.284000000    -2.391000000
C     5.185000000     1.122000000    -1.365000000
H     6.010000000     0.648000000    -1.901000000
C     4.773000000     0.496000000    -0.025000000
C     5.040000000    -0.860000000     0.168000000
H     5.494000000    -1.430000000    -0.639000000
H     5.661000000     2.087000000    -1.174000000
C     3.671000000     0.185000000    -3.264000000
H     4.156000000    -0.767000000    -3.066000000
C     2.672000000     0.348000000    -4.215000000
C     2.193000000    -0.914000000    -4.996000000
H     3.087000000    -1.455000000    -5.315000000
H     1.765000000    -0.573000000    -5.941000000
C     1.247000000    -1.760000000    -4.182000000
C     1.701000000    -2.927000000    -3.621000000
H     2.773000000    -3.090000000    -3.543000000
C    -0.090000000    -1.491000000    -4.198000000
C    -1.000000000    -2.324000000    -3.423000000
H    -2.055000000    -2.075000000    -3.333000000
C    -0.547000000    -3.541000000    -2.899000000
O    -1.418000000    -4.253000000    -2.056000000
C    -1.484000000    -3.977000000    -0.634000000
C    -2.882000000    -3.879000000    -0.104000000
C    -3.218000000    -4.438000000     1.100000000
H    -2.533000000    -5.034000000     1.697000000
C    -3.804000000    -3.079000000    -0.812000000
H    -3.414000000    -2.508000000    -1.651000000
O    -0.731000000    -4.927000000     0.120000000
H    -1.027000000    -2.984000000    -0.518000000
C     0.809000000    -3.801000000    -3.007000000
C     1.458000000    -4.933000000    -2.150000000
H     2.490000000    -5.143000000    -2.438000000
H     0.805000000    -5.796000000    -2.296000000
C     1.679000000    -4.486000000    -0.676000000
C     2.944000000    -3.989000000    -0.286000000
H     3.788000000    -3.935000000    -0.969000000
C     0.662000000    -4.640000000     0.352000000
C     1.023000000    -4.489000000     1.679000000
H     0.175000000    -4.573000000     2.353000000
C     2.149000000    -3.872000000     2.055000000
O     2.283000000    -3.335000000     3.331000000
C     2.087000000    -1.906000000     3.329000000
C     1.111000000    -1.537000000     4.492000000
C    -0.043000000    -2.223000000     4.722000000
H    -0.306000000    -3.056000000     4.076000000
C     1.372000000    -0.369000000     5.208000000
H     2.233000000     0.228000000     4.920000000
O     3.330000000    -1.192000000     3.397000000
H     1.529000000    -1.511000000     2.467000000
C     3.175000000    -3.657000000     1.077000000
C     4.542000000    -3.035000000     1.423000000
H     5.358000000    -3.492000000     0.859000000
H     4.788000000    -3.250000000     2.465000000
C     4.525000000    -1.485000000     1.294000000
C     3.914000000    -0.655000000     2.259000000
C     3.776000000     0.687000000     2.056000000
H     3.231000000     1.234000000     2.821000000
C     4.158000000     1.326000000     0.912000000
O     3.994000000     2.637000000     0.604000000
C     2.817000000     3.005000000    -0.159000000
H     2.130000000     2.151000000    -0.254000000
C     1.966000000     4.124000000     0.495000000
C     1.587000000     5.261000000    -0.281000000
H     1.986000000     5.386000000    -1.284000000
C     1.476000000     3.982000000     1.765000000
H     1.748000000     3.112000000     2.358000000
C     0.663000000     4.924000000     2.322000000
O     0.292000000     4.831000000     3.620000000
C     0.298000000     6.039000000     1.581000000
H    -0.372000000     6.755000000     2.051000000
C     0.820000000     6.182000000     0.299000000
O     0.383000000     7.250000000    -0.446000000
C     0.092000000     7.101000000    -1.772000000
C    -1.025000000     6.383000000    -2.145000000
H    -1.773000000     6.150000000    -1.391000000
C     1.003000000     7.466000000    -2.750000000
H     1.943000000     7.922000000    -2.451000000
C     0.824000000     7.187000000    -4.106000000
H     1.614000000     7.500000000    -4.785000000
C    -0.265000000     6.397000000    -4.438000000
H    -0.474000000     6.003000000    -5.430000000
C    -1.248000000     6.062000000    -3.477000000
O    -2.452000000     5.409000000    -3.858000000
C    -2.609000000     4.041000000    -3.912000000
C    -3.867000000     3.458000000    -3.864000000
H    -4.742000000     4.101000000    -3.793000000
C    -4.023000000     2.082000000    -4.017000000
O    -5.337000000     1.633000000    -3.980000000
C    -5.630000000     0.299000000    -3.741000000
C    -5.729000000    -0.306000000    -2.449000000
H    -5.561000000     0.291000000    -1.557000000
C    -5.874000000    -0.540000000    -4.863000000
H    -5.870000000    -0.163000000    -5.882000000
C    -6.129000000    -1.916000000    -4.662000000
H    -6.133000000    -2.581000000    -5.522000000
C    -6.213000000    -2.509000000    -3.382000000
H    -6.188000000    -3.576000000    -3.175000000
C    -6.049000000    -1.653000000    -2.308000000
O    -6.099000000    -2.193000000    -0.999000000
C    -5.121000000    -2.965000000    -0.354000000
C    -5.525000000    -3.577000000     0.831000000
H    -6.559000000    -3.439000000     1.137000000
C    -4.518000000    -4.288000000     1.595000000
O    -4.837000000    -4.629000000     2.850000000
C    -3.921000000    -4.755000000     3.860000000
C    -3.443000000    -3.644000000     4.499000000
H    -3.883000000    -2.666000000     4.319000000
C    -3.385000000    -6.028000000     4.240000000
H    -3.761000000    -6.921000000     3.748000000
C    -2.437000000    -6.143000000     5.267000000
H    -2.125000000    -7.133000000     5.589000000
C    -1.946000000    -4.967000000     5.921000000
H    -1.226000000    -5.026000000     6.733000000
C    -2.418000000    -3.705000000     5.471000000
O    -1.996000000    -2.546000000     6.144000000
C    -0.885000000    -1.839000000     5.758000000
C    -0.602000000    -0.590000000     6.428000000
H    -1.297000000    -0.210000000     7.172000000
C     0.506000000     0.136000000     6.141000000
O     0.762000000     1.307000000     6.851000000
C     1.264000000     2.389000000     6.196000000
C     2.498000000     2.844000000     6.589000000
H     3.099000000     2.156000000     7.177000000
C     3.014000000     4.015000000     6.003000000
H     4.005000000     4.364000000     6.283000000
C     2.221000000     4.748000000     5.173000000
H     2.632000000     5.710000000     4.875000000
C     1.024000000     4.244000000     4.626000000
C     0.535000000     3.120000000     5.213000000
H    -0.516000000     2.869000000     5.098000000
C    -1.978000000    -0.038000000     2.344000000
H    -2.385000000    -0.385000000     3.290000000
C    -1.223000000    -0.893000000     1.544000000
H    -1.190000000    -1.977000000     1.618000000
C    -0.566000000    -0.445000000     0.390000000
H     0.040000000    -1.125000000    -0.198000000
C    -0.723000000     0.870000000    -0.033000000
H    -0.357000000     1.283000000    -0.970000000
C    -1.526000000     1.711000000     0.800000000
H    -1.677000000     2.663000000     0.298000000
C    -2.247000000     1.223000000     1.887000000
C    -3.084000000     2.178000000     2.800000000
O    -3.308000000     3.370000000     2.366000000
O    -3.483000000     1.921000000     3.918000000
O    -6.205000000     0.132000000     1.025000000
H    -6.430000000    -0.283000000     1.858000000
H    -5.823000000    -0.573000000     0.502000000
O    -8.110000000     6.541000000     3.445000000
H    -7.373000000     5.965000000     3.240000000
H    -7.833000000     7.013000000     4.231000000
O    -6.670000000    -0.838000000     3.278000000
H    -7.521000000    -0.703000000     3.695000000
H    -6.040000000    -0.785000000     3.996000000
O    -8.671000000     1.472000000     5.099000000
H    -9.284000000     1.581000000     4.372000000
H    -7.857000000     1.869000000     4.787000000
O    -5.771000000     1.755000000     7.862000000
H    -5.999000000     2.399000000     7.192000000
H    -4.814000000     1.723000000     7.848000000
O    -6.184000000     3.868000000     6.206000000
H    -7.024000000     4.324000000     6.261000000
H    -6.285000000     3.269000000     5.466000000
O    -1.133000000     5.652000000     6.969000000
H    -1.791000000     5.276000000     6.384000000
H    -0.762000000     4.898000000     7.428000000
O    -4.965000000    -0.703000000     5.544000000
H    -5.555000000    -0.252000000     6.148000000
H    -4.122000000    -0.263000000     5.660000000
O    -3.033000000     5.552000000     1.037000000
H    -2.190000000     5.332000000     0.640000000
H    -3.163000000     4.884000000     1.710000000
O    -5.773000000     2.897000000     1.403000000
H    -4.887000000     3.230000000     1.547000000
H    -5.644000000     2.009000000     1.070000000
O    -3.371000000     1.409000000     6.489000000
H    -2.495000000     1.696000000     6.746000000
H    -3.431000000     1.628000000     5.559000000
O    -6.057000000     5.125000000     3.006000000
H    -5.310000000     5.721000000     2.948000000
H    -5.750000000     4.316000000     2.596000000
O    -8.253000000     2.063000000     0.354000000
H    -7.492000000     1.551000000     0.627000000
H    -8.195000000     2.088000000    -0.601000000
O    -3.004000000     4.453000000     5.096000000
H    -3.776000000     3.892000000     5.174000000
H    -2.648000000     4.253000000     4.230000000
O    -1.750000000     2.526000000     8.461000000
H    -1.330000000     3.123000000     9.080000000
H    -2.391000000     2.048000000     8.988000000
O    -4.232000000     6.946000000     4.473000000
H    -3.787000000     6.142000000     4.741000000
H    -5.142000000     6.816000000     4.740000000
O    -5.378000000     6.567000000    -0.024000000
H    -4.546000000     6.167000000     0.229000000
H    -5.311000000     6.681000000    -0.972000000
O    -3.413000000     8.469000000     1.200000000
H    -2.954000000     7.782000000     1.684000000
H    -4.251000000     8.074000000     0.960000000
O    -6.123000000     2.101000000     4.174000000
H    -5.260000000     1.704000000     4.055000000
H    -6.250000000     2.636000000     3.391000000
