215
-1457.38821
C     3.113000000    -2.999000000    -2.869000000
H     2.958000000    -3.726000000    -2.077000000
C     3.620000000    -1.710000000    -2.634000000
C     3.752000000    -0.761000000    -3.630000000
H     4.015000000     0.261000000    -3.369000000
C     3.952000000    -1.338000000    -1.188000000
O     4.508000000    -2.419000000    -0.387000000
H     3.057000000    -0.942000000    -0.687000000
O     4.834000000    -0.222000000    -1.068000000
C     4.505000000     0.753000000    -0.191000000
C     3.844000000     1.916000000    -0.654000000
H     3.650000000     2.027000000    -1.718000000
C     3.337000000     2.815000000     0.252000000
O     2.645000000     3.804000000    -0.265000000
C     3.570000000     2.672000000     1.625000000
C     2.912000000     3.699000000     2.554000000
H     3.435000000     3.668000000     3.512000000
C     1.417000000     3.430000000     2.854000000
C     1.037000000     2.889000000     4.057000000
H     1.870000000     2.467000000     4.613000000
H     3.006000000     4.659000000     2.041000000
C     4.288000000     1.569000000     2.078000000
H     4.460000000     1.464000000     3.146000000
C     4.745000000     0.589000000     1.169000000
C     5.295000000    -0.682000000     1.764000000
H     5.773000000    -0.431000000     2.713000000
H     6.098000000    -0.944000000     1.071000000
C     4.206000000    -1.709000000     1.873000000
C     3.562000000    -1.767000000     3.106000000
H     3.720000000    -0.961000000     3.818000000
C     3.908000000    -2.605000000     0.842000000
C     2.861000000    -3.583000000     0.985000000
H     2.599000000    -4.213000000     0.139000000
C     2.163000000    -3.478000000     2.157000000
O     1.044000000    -4.376000000     2.229000000
C    -0.236000000    -3.730000000     2.053000000
C    -1.151000000    -4.428000000     1.020000000
C    -2.468000000    -4.122000000     0.715000000
H    -2.892000000    -3.374000000     1.379000000
C    -0.528000000    -5.452000000     0.259000000
H     0.551000000    -5.576000000     0.285000000
O    -0.938000000    -3.557000000     3.325000000
H    -0.142000000    -2.722000000     1.622000000
C     2.502000000    -2.659000000     3.231000000
C     1.656000000    -2.778000000     4.515000000
H     2.282000000    -2.455000000     5.349000000
H     1.373000000    -3.797000000     4.788000000
C     0.376000000    -1.875000000     4.457000000
C     0.255000000    -0.610000000     5.035000000
H     1.163000000    -0.239000000     5.504000000
C    -0.832000000    -2.361000000     3.933000000
C    -1.931000000    -1.525000000     3.834000000
H    -2.828000000    -1.891000000     3.341000000
C    -1.939000000    -0.274000000     4.323000000
O    -2.954000000     0.517000000     3.965000000
C    -2.900000000     1.438000000     2.942000000
C    -4.204000000     1.517000000     2.216000000
C    -5.068000000     0.417000000     2.045000000
H    -4.929000000    -0.465000000     2.664000000
C    -4.423000000     2.722000000     1.540000000
H    -3.859000000     3.644000000     1.654000000
O    -2.547000000     2.729000000     3.441000000
H    -2.131000000     1.114000000     2.225000000
C    -0.826000000     0.262000000     4.955000000
C    -0.678000000     1.717000000     5.446000000
H     0.094000000     1.892000000     6.198000000
H    -1.624000000     1.998000000     5.913000000
C    -0.304000000     2.613000000     4.272000000
C    -1.289000000     3.138000000     3.410000000
C    -0.923000000     3.876000000     2.299000000
H    -1.590000000     4.339000000     1.576000000
C     0.389000000     3.987000000     2.019000000
O     0.690000000     4.565000000     0.801000000
C     1.244000000     3.745000000    -0.297000000
H     0.909000000     2.713000000    -0.113000000
C     0.745000000     4.386000000    -1.590000000
C     1.461000000     4.243000000    -2.809000000
H     2.415000000     3.724000000    -2.850000000
C    -0.522000000     4.952000000    -1.581000000
H    -1.160000000     5.053000000    -0.707000000
C    -1.103000000     5.373000000    -2.817000000
O    -2.332000000     6.014000000    -2.824000000
C    -0.316000000     5.183000000    -4.021000000
H    -0.732000000     5.458000000    -4.987000000
C     1.036000000     4.709000000    -3.987000000
O     1.736000000     4.478000000    -5.117000000
C     2.726000000     3.529000000    -5.446000000
C     2.431000000     2.162000000    -5.298000000
H     1.528000000     1.761000000    -4.846000000
C     3.912000000     4.007000000    -5.938000000
H     4.045000000     5.083000000    -5.852000000
C     4.845000000     3.051000000    -6.394000000
H     5.769000000     3.353000000    -6.880000000
C     4.614000000     1.714000000    -6.278000000
H     5.416000000     1.074000000    -6.637000000
C     3.381000000     1.246000000    -5.785000000
O     2.994000000    -0.036000000    -5.859000000
C     3.114000000    -1.006000000    -4.890000000
C     2.777000000    -2.360000000    -5.202000000
H     2.320000000    -2.618000000    -6.154000000
C     2.714000000    -3.366000000    -4.220000000
O     2.112000000    -4.521000000    -4.569000000
C     1.943000000    -5.575000000    -3.688000000
C     0.817000000    -5.649000000    -2.903000000
H     0.065000000    -4.873000000    -3.016000000
C     2.837000000    -6.660000000    -3.719000000
H     3.652000000    -6.585000000    -4.434000000
C     2.683000000    -7.724000000    -2.913000000
H     3.368000000    -8.568000000    -2.938000000
C     1.570000000    -7.769000000    -2.068000000
H     1.382000000    -8.673000000    -1.494000000
C     0.562000000    -6.819000000    -2.188000000
O    -0.702000000    -7.065000000    -1.622000000
C    -1.305000000    -6.087000000    -0.752000000
C    -2.624000000    -5.740000000    -1.037000000
H    -3.226000000    -6.324000000    -1.728000000
C    -3.199000000    -4.798000000    -0.247000000
O    -4.530000000    -4.419000000    -0.428000000
C    -5.290000000    -3.841000000     0.518000000
C    -5.780000000    -2.566000000     0.227000000
H    -5.670000000    -2.158000000    -0.775000000
C    -5.402000000    -4.286000000     1.804000000
H    -4.930000000    -5.224000000     2.086000000
C    -6.130000000    -3.619000000     2.766000000
H    -6.230000000    -4.046000000     3.761000000
C    -6.624000000    -2.329000000     2.468000000
H    -7.021000000    -1.773000000     3.313000000
C    -6.525000000    -1.824000000     1.143000000
O    -6.914000000    -0.555000000     0.869000000
C    -6.060000000     0.476000000     1.131000000
C    -6.247000000     1.674000000     0.417000000
H    -7.030000000     1.697000000    -0.337000000
C    -5.459000000     2.816000000     0.615000000
O    -5.760000000     3.976000000    -0.058000000
C    -4.959000000     4.981000000    -0.455000000
C    -5.247000000     6.258000000     0.094000000
H    -6.072000000     6.342000000     0.797000000
C    -4.518000000     7.384000000    -0.238000000
H    -4.775000000     8.321000000     0.250000000
C    -3.500000000     7.243000000    -1.174000000
H    -2.790000000     8.049000000    -1.338000000
C    -3.305000000     5.986000000    -1.805000000
C    -4.054000000     4.879000000    -1.475000000
H    -4.014000000     3.904000000    -1.956000000
C    -1.546000000     0.769000000    -0.347000000
H    -2.192000000     1.617000000    -0.130000000
C    -0.422000000     0.664000000     0.467000000
H    -0.181000000     1.368000000     1.260000000
C     0.375000000    -0.471000000     0.246000000
H     1.332000000    -0.660000000     0.858000000
C     0.117000000    -1.361000000    -0.807000000
H     0.883000000    -2.074000000    -1.099000000
C    -0.912000000    -1.031000000    -1.699000000
H    -0.931000000    -1.624000000    -2.610000000
C    -1.806000000    -0.011000000    -1.502000000
C    -2.971000000     0.265000000    -2.330000000
O    -3.231000000    -0.400000000    -3.304000000
O    -3.552000000     1.337000000    -2.215000000
O    -2.000000000    -5.748000000    -5.237000000
H    -2.215000000    -5.011000000    -4.665000000
H    -2.758000000    -6.330000000    -5.173000000
O    -8.722000000     1.008000000    -3.202000000
H    -7.776000000     1.129000000    -3.116000000
H    -9.099000000     1.819000000    -2.860000000
O    -6.950000000    -0.310000000    -6.335000000
H    -7.157000000     0.602000000    -6.536000000
H    -7.631000000    -0.814000000    -6.780000000
O    -5.679000000    -1.393000000    -3.603000000
H    -6.096000000    -0.549000000    -3.772000000
H    -4.801000000    -1.170000000    -3.293000000
O    -0.829000000     1.468000000    -5.291000000
H    -1.534000000     2.031000000    -4.970000000
H    -0.562000000     0.959000000    -4.525000000
O    -4.051000000    -1.091000000    -5.961000000
H    -4.996000000    -1.188000000    -5.845000000
H    -3.724000000    -0.865000000    -5.090000000
O    -9.062000000     4.177000000    -2.395000000
H    -8.109000000     4.086000000    -2.384000000
H    -9.232000000     4.983000000    -1.907000000
O    -5.293000000     3.539000000    -6.810000000
H    -5.713000000     4.058000000    -7.496000000
H    -4.811000000     2.861000000    -7.283000000
O    -3.143000000     2.684000000    -4.502000000
H    -3.953000000     3.040000000    -4.866000000
H    -3.427000000     2.158000000    -3.754000000
O    -1.700000000    -0.284000000    -7.295000000
H    -1.447000000     0.307000000    -6.586000000
H    -2.326000000    -0.886000000    -6.893000000
O    -4.549000000     1.124000000    -7.774000000
H    -4.566000000     0.486000000    -7.061000000
H    -4.059000000     0.690000000    -8.472000000
O     0.590000000     1.281000000    -7.862000000
H    -0.206000000     0.770000000    -7.708000000
H     0.681000000     1.824000000    -7.079000000
O    -8.837000000    -2.582000000    -1.663000000
H    -9.461000000    -2.170000000    -2.259000000
H    -7.990000000    -2.206000000    -1.905000000
O    -5.344000000    -4.230000000    -4.567000000
H    -5.620000000    -3.476000000    -4.046000000
H    -6.162000000    -4.656000000    -4.823000000
O    -6.147000000     3.961000000    -4.173000000
H    -5.891000000     3.640000000    -5.037000000
H    -6.546000000     4.814000000    -4.342000000
O    -6.093000000     1.335000000    -3.430000000
H    -5.222000000     1.219000000    -3.050000000
H    -6.164000000     2.278000000    -3.582000000
O    -9.585000000    -1.399000000    -4.018000000
H    -9.046000000    -1.509000000    -4.801000000
H    -9.315000000    -0.554000000    -3.659000000
O    -2.856000000    -3.560000000    -3.865000000
H    -2.930000000    -2.630000000    -3.651000000
H    -3.747000000    -3.826000000    -4.092000000
O    -0.193000000    -3.343000000    -6.292000000
H     0.662000000    -3.628000000    -5.970000000
H    -0.808000000    -3.987000000    -5.941000000
