215
-1447.33421
C     1.246000000    -3.330000000    -3.641000000
H     1.528000000    -4.013000000    -2.844000000
C     1.864000000    -2.075000000    -3.641000000
C     1.505000000    -1.137000000    -4.625000000
H     2.046000000    -0.205000000    -4.480000000
C     2.762000000    -1.755000000    -2.385000000
O     3.300000000    -2.928000000    -1.772000000
H     2.186000000    -1.106000000    -1.709000000
O     3.892000000    -0.868000000    -2.730000000
C     4.233000000     0.245000000    -1.902000000
C     3.833000000     1.524000000    -2.292000000
H     3.399000000     1.597000000    -3.286000000
C     3.784000000     2.595000000    -1.385000000
O     3.077000000     3.704000000    -1.758000000
C     4.405000000     2.476000000    -0.118000000
C     4.348000000     3.549000000     0.938000000
H     5.138000000     3.422000000     1.681000000
C     3.056000000     3.619000000     1.749000000
C     2.930000000     3.032000000     3.005000000
H     3.739000000     2.493000000     3.491000000
H     4.387000000     4.527000000     0.453000000
C     5.024000000     1.215000000     0.159000000
H     5.407000000     1.069000000     1.165000000
C     4.901000000     0.110000000    -0.698000000
C     5.361000000    -1.253000000    -0.242000000
H     6.256000000    -1.189000000     0.380000000
H     5.638000000    -1.814000000    -1.137000000
C     4.260000000    -2.062000000     0.405000000
C     4.055000000    -1.945000000     1.797000000
H     4.673000000    -1.213000000     2.311000000
C     3.332000000    -2.793000000    -0.369000000
C     2.407000000    -3.571000000     0.268000000
H     1.678000000    -4.163000000    -0.281000000
C     2.270000000    -3.573000000     1.658000000
O     1.170000000    -4.307000000     2.175000000
C    -0.085000000    -3.585000000     2.355000000
C    -1.272000000    -4.437000000     1.899000000
C    -2.517000000    -4.280000000     2.453000000
H    -2.672000000    -3.629000000     3.310000000
C    -1.181000000    -5.337000000     0.842000000
H    -0.229000000    -5.583000000     0.378000000
O    -0.191000000    -3.158000000     3.778000000
H    -0.058000000    -2.745000000     1.646000000
C     3.091000000    -2.759000000     2.435000000
C     2.715000000    -2.556000000     3.878000000
H     3.670000000    -2.301000000     4.342000000
H     2.471000000    -3.525000000     4.318000000
C     1.620000000    -1.562000000     4.155000000
C     2.065000000    -0.290000000     4.466000000
H     3.119000000    -0.027000000     4.474000000
C     0.271000000    -1.964000000     4.169000000
C    -0.681000000    -0.951000000     4.418000000
H    -1.724000000    -1.180000000     4.619000000
C    -0.241000000     0.322000000     4.707000000
O    -1.159000000     1.303000000     4.774000000
C    -1.279000000     2.037000000     3.474000000
C    -2.787000000     2.105000000     3.008000000
C    -3.549000000     0.933000000     2.895000000
H    -3.058000000     0.012000000     3.201000000
C    -3.382000000     3.285000000     2.657000000
H    -2.761000000     4.176000000     2.629000000
O    -0.740000000     3.386000000     3.608000000
H    -0.651000000     1.551000000     2.714000000
C     1.084000000     0.666000000     4.658000000
C     1.488000000     2.080000000     4.969000000
H     2.369000000     2.131000000     5.612000000
H     0.780000000     2.601000000     5.617000000
C     1.752000000     2.984000000     3.732000000
C     0.578000000     3.545000000     3.134000000
C     0.680000000     4.150000000     1.857000000
H    -0.191000000     4.556000000     1.349000000
C     1.892000000     4.144000000     1.153000000
O     1.826000000     4.660000000    -0.099000000
C     1.740000000     3.788000000    -1.216000000
H     1.489000000     2.784000000    -0.843000000
C     0.729000000     4.385000000    -2.196000000
C     1.020000000     4.334000000    -3.561000000
H     1.959000000     3.917000000    -3.915000000
C    -0.527000000     4.756000000    -1.815000000
H    -0.852000000     4.685000000    -0.780000000
C    -1.529000000     5.129000000    -2.797000000
O    -2.848000000     5.431000000    -2.398000000
C    -1.207000000     5.055000000    -4.166000000
H    -2.031000000     5.074000000    -4.875000000
C     0.101000000     4.752000000    -4.569000000
O     0.334000000     4.441000000    -5.854000000
C     0.862000000     3.195000000    -6.278000000
C     0.158000000     1.940000000    -6.188000000
H    -0.878000000     1.899000000    -5.862000000
C     2.178000000     3.222000000    -6.772000000
H     2.800000000     4.106000000    -6.657000000
C     2.731000000     1.988000000    -7.269000000
H     3.692000000     2.024000000    -7.776000000
C     2.069000000     0.764000000    -7.181000000
H     2.503000000    -0.188000000    -7.471000000
C     0.808000000     0.755000000    -6.581000000
O     0.103000000    -0.465000000    -6.493000000
C     0.549000000    -1.461000000    -5.628000000
C    -0.138000000    -2.681000000    -5.533000000
H    -0.951000000    -2.940000000    -6.207000000
C     0.223000000    -3.553000000    -4.520000000
O    -0.397000000    -4.733000000    -4.585000000
C    -0.221000000    -5.686000000    -3.695000000
C    -1.112000000    -5.814000000    -2.623000000
H    -1.881000000    -5.051000000    -2.530000000
C     0.775000000    -6.651000000    -3.868000000
H     1.396000000    -6.776000000    -4.751000000
C     0.836000000    -7.667000000    -2.827000000
H     1.545000000    -8.481000000    -2.955000000
C    -0.170000000    -7.780000000    -1.884000000
H    -0.174000000    -8.653000000    -1.235000000
C    -1.157000000    -6.863000000    -1.740000000
O    -2.067000000    -6.979000000    -0.740000000
C    -2.287000000    -6.052000000     0.394000000
C    -3.470000000    -6.072000000     1.113000000
H    -4.367000000    -6.596000000     0.792000000
C    -3.644000000    -5.106000000     2.134000000
O    -4.832000000    -4.861000000     2.835000000
C    -5.074000000    -3.585000000     3.416000000
C    -5.315000000    -2.488000000     2.588000000
H    -5.341000000    -2.507000000     1.502000000
C    -5.072000000    -3.538000000     4.795000000
H    -5.024000000    -4.491000000     5.316000000
C    -5.041000000    -2.289000000     5.394000000
H    -5.000000000    -2.183000000     6.475000000
C    -5.223000000    -1.147000000     4.584000000
H    -5.270000000    -0.175000000     5.070000000
C    -5.366000000    -1.248000000     3.217000000
O    -5.580000000    -0.187000000     2.421000000
C    -4.885000000     0.968000000     2.539000000
C    -5.449000000     2.135000000     2.123000000
H    -6.462000000     2.116000000     1.729000000
C    -4.735000000     3.357000000     2.230000000
O    -5.232000000     4.467000000     1.596000000
C    -4.538000000     5.364000000     0.870000000
C    -3.867000000     6.409000000     1.457000000
H    -3.859000000     6.498000000     2.540000000
C    -2.872000000     7.109000000     0.782000000
H    -2.341000000     7.955000000     1.210000000
C    -2.586000000     6.896000000    -0.533000000
H    -1.807000000     7.458000000    -1.043000000
C    -3.244000000     5.799000000    -1.119000000
C    -4.234000000     5.108000000    -0.441000000
H    -4.633000000     4.305000000    -1.056000000
C    -1.247000000     1.176000000    -2.831000000
H    -1.219000000     1.538000000    -3.856000000
C    -0.094000000     0.973000000    -2.126000000
H     0.815000000     0.962000000    -2.722000000
C    -0.195000000     0.496000000    -0.848000000
H     0.714000000     0.140000000    -0.351000000
C    -1.475000000     0.397000000    -0.167000000
H    -1.537000000    -0.047000000     0.823000000
C    -2.604000000     0.845000000    -0.863000000
H    -3.592000000     0.842000000    -0.410000000
C    -2.516000000     1.209000000    -2.231000000
C    -3.809000000     1.486000000    -2.918000000
O    -4.801000000     1.555000000    -2.227000000
O    -3.750000000     1.618000000    -4.147000000
O    -5.850000000    -1.725000000    -7.773000000
H    -6.488000000    -2.438000000    -7.784000000
H    -6.345000000    -0.965000000    -7.468000000
O    -9.298000000    -0.746000000    -2.968000000
H   -10.219000000    -0.487000000    -2.982000000
H    -8.999000000    -0.521000000    -2.087000000
O    -6.794000000     3.219000000    -1.871000000
H    -6.905000000     3.286000000    -2.819000000
H    -5.915000000     2.856000000    -1.758000000
O    -2.118000000     4.585000000    -7.950000000
H    -2.513000000     3.891000000    -7.423000000
H    -1.587000000     4.122000000    -8.597000000
O    -6.677000000    -3.437000000    -4.176000000
H    -6.789000000    -2.508000000    -4.380000000
H    -5.728000000    -3.565000000    -4.159000000
O    -3.281000000    -0.922000000    -5.202000000
H    -3.765000000    -0.588000000    -5.957000000
H    -3.227000000    -0.176000000    -4.604000000
O    -6.230000000    -0.773000000    -1.313000000
H    -5.717000000    -0.006000000    -1.570000000
H    -5.576000000    -1.446000000    -1.126000000
O    -7.791000000     5.040000000    -0.148000000
H    -7.208000000     5.785000000    -0.296000000
H    -7.383000000     4.318000000    -0.625000000
O    -3.504000000     0.611000000    -8.174000000
H    -4.061000000     0.883000000    -8.904000000
H    -3.416000000    -0.336000000    -8.281000000
O    -3.674000000    -3.301000000    -3.930000000
H    -3.304000000    -3.919000000    -4.559000000
H    -3.572000000    -2.445000000    -4.346000000
O    -3.187000000     2.782000000    -6.465000000
H    -3.307000000     2.362000000    -5.614000000
H    -3.212000000     2.061000000    -7.094000000
O    -7.292000000     0.831000000    -7.839000000
H    -7.411000000     1.642000000    -7.345000000
H    -8.159000000     0.637000000    -8.193000000
O    -4.017000000    -2.656000000    -1.315000000
H    -3.143000000    -2.281000000    -1.211000000
H    -4.032000000    -2.980000000    -2.216000000
O    -8.766000000    -0.462000000    -0.030000000
H    -8.708000000    -0.242000000     0.899000000
H    -7.871000000    -0.364000000    -0.356000000
O    -4.539000000     4.916000000    -4.508000000
H    -3.990000000     5.375000000    -3.872000000
H    -4.530000000     4.004000000    -4.219000000
O    -7.201000000    -0.723000000    -4.949000000
H    -7.765000000    -0.475000000    -4.216000000
H    -6.619000000     0.028000000    -5.067000000
O    -6.702000000     1.948000000    -4.816000000
H    -6.663000000     2.397000000    -5.661000000
H    -5.791000000     1.899000000    -4.529000000
O    -9.450000000     2.006000000    -1.610000000
H    -8.788000000     1.352000000    -1.385000000
H    -8.978000000     2.839000000    -1.596000000
O    -4.639000000     5.624000000    -7.088000000
H    -3.759000000     5.534000000    -7.455000000
H    -4.576000000     5.229000000    -6.218000000
