215
-1432.68910
C     2.146000000    -4.288000000    -2.587000000
H     2.563000000    -4.942000000    -1.826000000
C     2.405000000    -2.967000000    -2.580000000
C     1.985000000    -2.170000000    -3.602000000
H     2.148000000    -1.096000000    -3.632000000
C     3.257000000    -2.268000000    -1.521000000
O     3.823000000    -3.205000000    -0.565000000
H     2.519000000    -1.638000000    -1.002000000
O     4.324000000    -1.427000000    -1.954000000
C     4.477000000    -0.300000000    -1.182000000
C     3.998000000     0.864000000    -1.861000000
H     3.762000000     0.847000000    -2.922000000
C     3.986000000     2.077000000    -1.200000000
O     3.360000000     3.122000000    -1.830000000
C     4.577000000     2.146000000     0.121000000
C     4.359000000     3.381000000     0.966000000
H     5.045000000     3.260000000     1.807000000
C     2.944000000     3.544000000     1.579000000
C     2.696000000     3.270000000     2.914000000
H     3.537000000     2.989000000     3.543000000
H     4.622000000     4.318000000     0.470000000
C     5.055000000     0.981000000     0.736000000
H     5.267000000     1.057000000     1.799000000
C     4.882000000    -0.265000000     0.149000000
C     5.384000000    -1.508000000     0.876000000
H     6.079000000    -1.190000000     1.656000000
H     5.964000000    -2.166000000     0.226000000
C     4.224000000    -2.271000000     1.519000000
C     3.728000000    -1.902000000     2.788000000
H     4.282000000    -1.104000000     3.275000000
C     3.461000000    -3.095000000     0.723000000
C     2.316000000    -3.770000000     1.128000000
H     1.820000000    -4.537000000     0.538000000
C     2.003000000    -3.521000000     2.482000000
O     0.738000000    -3.932000000     2.857000000
C    -0.358000000    -2.999000000     2.620000000
C    -1.504000000    -3.572000000     1.797000000
C    -2.789000000    -2.929000000     1.903000000
H    -2.858000000    -2.056000000     2.547000000
C    -1.372000000    -4.741000000     1.061000000
H    -0.408000000    -5.202000000     0.862000000
O    -0.702000000    -2.476000000     3.871000000
H     0.095000000    -2.194000000     2.023000000
C     2.559000000    -2.469000000     3.283000000
C     1.990000000    -2.179000000     4.694000000
H     2.732000000    -2.095000000     5.491000000
H     1.382000000    -3.034000000     4.995000000
C     1.049000000    -0.946000000     4.601000000
C     1.480000000     0.314000000     4.959000000
H     2.509000000     0.527000000     5.236000000
C    -0.291000000    -1.185000000     4.247000000
C    -1.251000000    -0.182000000     4.124000000
H    -2.307000000    -0.389000000     3.974000000
C    -0.813000000     1.110000000     4.346000000
O    -1.752000000     2.054000000     4.141000000
C    -1.668000000     2.650000000     2.867000000
C    -3.078000000     2.890000000     2.407000000
C    -4.205000000     2.374000000     3.010000000
H    -4.270000000     1.899000000     3.986000000
C    -3.153000000     3.382000000     1.064000000
H    -2.266000000     3.623000000     0.484000000
O    -0.905000000     3.847000000     2.980000000
H    -1.124000000     1.976000000     2.189000000
C     0.547000000     1.377000000     4.804000000
C     1.045000000     2.848000000     4.859000000
H     1.976000000     2.885000000     5.429000000
H     0.413000000     3.519000000     5.444000000
C     1.399000000     3.315000000     3.415000000
C     0.415000000     3.820000000     2.607000000
C     0.677000000     4.169000000     1.284000000
H    -0.049000000     4.711000000     0.683000000
C     1.971000000     4.095000000     0.812000000
O     2.203000000     4.563000000    -0.437000000
C     2.104000000     3.514000000    -1.423000000
H     1.576000000     2.667000000    -0.961000000
C     1.267000000     3.932000000    -2.592000000
C     1.301000000     3.146000000    -3.762000000
H     1.967000000     2.287000000    -3.770000000
C     0.505000000     5.082000000    -2.541000000
H     0.379000000     5.605000000    -1.596000000
C    -0.305000000     5.385000000    -3.658000000
O    -1.231000000     6.384000000    -3.627000000
C    -0.268000000     4.540000000    -4.840000000
H    -0.845000000     4.839000000    -5.712000000
C     0.574000000     3.478000000    -4.904000000
O     0.649000000     2.749000000    -6.116000000
C     1.342000000     1.585000000    -6.256000000
C     0.719000000     0.412000000    -5.926000000
H    -0.241000000     0.411000000    -5.414000000
C     2.572000000     1.583000000    -6.866000000
H     3.080000000     2.487000000    -7.193000000
C     3.164000000     0.347000000    -7.132000000
H     4.082000000     0.386000000    -7.714000000
C     2.475000000    -0.824000000    -6.856000000
H     2.776000000    -1.791000000    -7.250000000
C     1.289000000    -0.833000000    -6.133000000
O     0.684000000    -1.959000000    -5.600000000
C     1.183000000    -2.776000000    -4.592000000
C     0.867000000    -4.101000000    -4.516000000
H     0.259000000    -4.490000000    -5.329000000
C     1.289000000    -4.847000000    -3.477000000
O     1.033000000    -6.204000000    -3.493000000
C     0.402000000    -6.804000000    -2.443000000
C    -0.757000000    -6.280000000    -1.810000000
H    -1.181000000    -5.351000000    -2.183000000
C     0.962000000    -7.925000000    -1.990000000
H     1.933000000    -8.207000000    -2.389000000
C     0.390000000    -8.691000000    -0.976000000
H     0.818000000    -9.665000000    -0.755000000
C    -0.773000000    -8.200000000    -0.319000000
H    -1.241000000    -8.782000000     0.472000000
C    -1.319000000    -6.970000000    -0.730000000
O    -2.485000000    -6.517000000    -0.135000000
C    -2.501000000    -5.261000000     0.416000000
C    -3.746000000    -4.625000000     0.575000000
H    -4.605000000    -5.176000000     0.200000000
C    -3.881000000    -3.462000000     1.330000000
O    -5.163000000    -2.899000000     1.363000000
C    -5.740000000    -2.023000000     2.317000000
C    -5.903000000    -0.669000000     1.930000000
H    -5.670000000    -0.344000000     0.919000000
C    -6.073000000    -2.482000000     3.581000000
H    -5.841000000    -3.516000000     3.823000000
C    -6.489000000    -1.625000000     4.595000000
H    -6.745000000    -2.063000000     5.556000000
C    -6.608000000    -0.245000000     4.254000000
H    -6.980000000     0.437000000     5.014000000
C    -6.263000000     0.189000000     2.928000000
O    -6.518000000     1.519000000     2.642000000
C    -5.430000000     2.357000000     2.295000000
C    -5.505000000     2.906000000     1.044000000
H    -6.376000000     2.718000000     0.421000000
C    -4.363000000     3.461000000     0.399000000
O    -4.405000000     4.021000000    -0.875000000
C    -3.766000000     5.177000000    -1.256000000
C    -4.062000000     6.371000000    -0.624000000
H    -4.833000000     6.394000000     0.142000000
C    -3.323000000     7.554000000    -0.880000000
H    -3.547000000     8.469000000    -0.338000000
C    -2.398000000     7.524000000    -1.916000000
H    -1.872000000     8.435000000    -2.191000000
C    -2.141000000     6.329000000    -2.626000000
C    -2.785000000     5.146000000    -2.286000000
H    -2.538000000     4.189000000    -2.740000000
C    -1.536000000     1.173000000    -2.411000000
H    -1.283000000     1.578000000    -3.388000000
C    -0.563000000     0.769000000    -1.526000000
H     0.479000000     0.838000000    -1.826000000
C    -0.935000000     0.259000000    -0.306000000
H    -0.143000000    -0.124000000     0.394000000
C    -2.293000000     0.025000000     0.044000000
H    -2.516000000    -0.354000000     1.039000000
C    -3.274000000     0.482000000    -0.806000000
H    -4.336000000     0.376000000    -0.601000000
C    -2.910000000     0.897000000    -2.064000000
C    -3.956000000     1.266000000    -3.077000000
O    -5.131000000     1.272000000    -2.814000000
O    -3.653000000     1.482000000    -4.206000000
O    -3.951000000     3.613000000    -9.261000000
H    -4.668000000     4.204000000    -9.031000000
H    -3.543000000     3.393000000    -8.423000000
O    -9.745000000     0.867000000    -2.071000000
H    -8.791000000     0.940000000    -2.113000000
H    -9.925000000     0.601000000    -1.169000000
O    -7.062000000     2.835000000    -2.295000000
H    -6.919000000     3.280000000    -3.130000000
H    -6.316000000     2.242000000    -2.209000000
O    -3.501000000     0.564000000    -9.462000000
H    -3.740000000     1.481000000    -9.330000000
H    -3.390000000     0.215000000    -8.577000000
O    -8.190000000    -2.112000000    -3.498000000
H    -7.670000000    -2.027000000    -4.297000000
H    -9.023000000    -1.689000000    -3.708000000
O    -3.889000000    -2.727000000    -5.615000000
H    -4.040000000    -2.620000000    -4.676000000
H    -4.680000000    -3.160000000    -5.937000000
O    -4.428000000    -1.945000000    -3.190000000
H    -4.092000000    -2.379000000    -2.407000000
H    -4.561000000    -1.035000000    -2.921000000
O    -7.043000000    -0.156000000    -1.513000000
H    -6.512000000     0.373000000    -2.108000000
H    -7.521000000    -0.755000000    -2.086000000
O    -6.854000000     0.485000000    -8.794000000
H    -6.108000000    -0.017000000    -8.467000000
H    -6.739000000     1.358000000    -8.418000000
O    -9.415000000     3.888000000    -1.333000000
H    -8.552000000     3.490000000    -1.447000000
H    -9.694000000     3.611000000    -0.460000000
O    -3.254000000    -0.427000000    -6.701000000
H    -3.260000000     0.190000000    -5.969000000
H    -3.650000000    -1.223000000    -6.346000000
O    -6.248000000     2.723000000    -7.575000000
H    -5.314000000     2.924000000    -7.529000000
H    -6.596000000     3.008000000    -6.730000000
O    -8.104000000    -2.635000000     0.294000000
H    -7.408000000    -2.007000000     0.484000000
H    -7.997000000    -2.838000000    -0.636000000
O    -1.497000000    -2.490000000    -2.158000000
H    -1.839000000    -1.880000000    -1.504000000
H    -1.332000000    -1.948000000    -2.929000000
O    -5.731000000     6.171000000    -5.949000000
H    -4.800000000     6.394000000    -5.968000000
H    -6.099000000     6.614000000    -6.713000000
O    -3.782000000     3.463000000    -6.368000000
H    -3.601000000     4.289000000    -5.919000000
H    -3.856000000     2.818000000    -5.665000000
O    -9.202000000     1.292000000    -5.157000000
H    -8.605000000     0.554000000    -5.274000000
H    -9.107000000     1.534000000    -4.236000000
O    -6.056000000    -0.261000000    -5.108000000
H    -5.577000000     0.558000000    -4.986000000
H    -5.474000000    -0.934000000    -4.754000000
O    -7.341000000     3.966000000    -5.485000000
H    -8.090000000     4.342000000    -5.022000000
H    -6.727000000     4.694000000    -5.578000000
