215
-1469.28469
C     1.802000000    -3.074000000    -3.526000000
H     1.938000000    -3.714000000    -2.659000000
C     2.572000000    -1.904000000    -3.578000000
C     2.437000000    -1.084000000    -4.681000000
H     2.927000000    -0.119000000    -4.772000000
C     3.274000000    -1.429000000    -2.292000000
O     3.835000000    -2.503000000    -1.531000000
H     2.534000000    -0.965000000    -1.623000000
O     4.274000000    -0.413000000    -2.581000000
C     4.364000000     0.626000000    -1.721000000
C     3.659000000     1.702000000    -2.084000000
H     3.093000000     1.816000000    -3.005000000
C     3.434000000     2.755000000    -1.245000000
O     2.658000000     3.747000000    -1.715000000
C     4.013000000     2.735000000     0.026000000
C     3.837000000     3.891000000     0.978000000
H     4.650000000     3.753000000     1.695000000
C     2.563000000     3.898000000     1.746000000
C     2.538000000     3.337000000     3.032000000
H     3.470000000     3.042000000     3.506000000
H     3.990000000     4.822000000     0.429000000
C     4.732000000     1.609000000     0.417000000
H     5.112000000     1.506000000     1.430000000
C     4.894000000     0.536000000    -0.475000000
C     5.492000000    -0.780000000     0.069000000
H     6.304000000    -0.617000000     0.780000000
H     5.938000000    -1.327000000    -0.764000000
C     4.445000000    -1.731000000     0.674000000
C     4.242000000    -1.779000000     2.027000000
H     4.783000000    -1.151000000     2.729000000
C     3.649000000    -2.518000000    -0.156000000
C     2.841000000    -3.523000000     0.432000000
H     2.235000000    -4.186000000    -0.180000000
C     2.594000000    -3.529000000     1.705000000
O     1.538000000    -4.249000000     2.210000000
C     0.230000000    -3.563000000     2.312000000
C    -0.905000000    -4.408000000     1.783000000
C    -2.214000000    -4.127000000     2.143000000
H    -2.304000000    -3.360000000     2.908000000
C    -0.676000000    -5.373000000     0.803000000
H     0.345000000    -5.715000000     0.650000000
O     0.062000000    -3.211000000     3.723000000
H     0.198000000    -2.572000000     1.835000000
C     3.286000000    -2.634000000     2.577000000
C     2.918000000    -2.389000000     3.983000000
H     3.833000000    -2.128000000     4.519000000
H     2.712000000    -3.391000000     4.366000000
C     1.741000000    -1.420000000     4.197000000
C     2.029000000    -0.136000000     4.583000000
H     3.057000000     0.217000000     4.594000000
C     0.396000000    -1.892000000     4.097000000
C    -0.585000000    -1.008000000     4.536000000
H    -1.579000000    -1.378000000     4.776000000
C    -0.289000000     0.380000000     4.723000000
O    -1.351000000     1.218000000     4.864000000
C    -1.603000000     1.961000000     3.680000000
C    -3.058000000     1.845000000     3.363000000
C    -3.872000000     0.841000000     3.840000000
H    -3.490000000     0.179000000     4.614000000
C    -3.564000000     2.704000000     2.393000000
H    -2.885000000     3.281000000     1.771000000
O    -1.142000000     3.327000000     3.773000000
H    -1.076000000     1.370000000     2.916000000
C     1.031000000     0.823000000     4.775000000
C     1.431000000     2.287000000     4.999000000
H     2.455000000     2.257000000     5.377000000
H     0.781000000     2.701000000     5.773000000
C     1.348000000     3.137000000     3.768000000
C     0.136000000     3.577000000     3.212000000
C     0.165000000     4.228000000     1.969000000
H    -0.800000000     4.535000000     1.575000000
C     1.376000000     4.391000000     1.243000000
O     1.295000000     4.839000000    -0.119000000
C     1.324000000     3.858000000    -1.210000000
H     0.960000000     2.896000000    -0.821000000
C     0.280000000     4.190000000    -2.298000000
C     0.437000000     3.776000000    -3.591000000
H     1.367000000     3.350000000    -3.958000000
C    -1.007000000     4.782000000    -1.881000000
H    -1.050000000     5.208000000    -0.882000000
C    -2.012000000     4.907000000    -2.832000000
O    -3.060000000     5.732000000    -2.528000000
C    -1.812000000     4.471000000    -4.153000000
H    -2.534000000     4.555000000    -4.961000000
C    -0.611000000     3.928000000    -4.482000000
O    -0.448000000     3.515000000    -5.799000000
C     0.650000000     2.821000000    -6.327000000
C     0.673000000     1.440000000    -6.250000000
H     0.055000000     0.849000000    -5.580000000
C     1.464000000     3.499000000    -7.204000000
H     1.271000000     4.553000000    -7.388000000
C     2.352000000     2.798000000    -8.052000000
H     2.865000000     3.296000000    -8.871000000
C     2.444000000     1.419000000    -7.881000000
H     3.141000000     0.780000000    -8.418000000
C     1.584000000     0.736000000    -6.982000000
O     1.676000000    -0.688000000    -6.930000000
C     1.681000000    -1.462000000    -5.796000000
C     0.991000000    -2.706000000    -5.791000000
H     0.395000000    -2.944000000    -6.668000000
C     1.023000000    -3.453000000    -4.630000000
O     0.392000000    -4.660000000    -4.611000000
C     0.375000000    -5.579000000    -3.547000000
C    -0.728000000    -5.775000000    -2.750000000
H    -1.692000000    -5.283000000    -2.856000000
C     1.534000000    -6.401000000    -3.454000000
H     2.339000000    -6.319000000    -4.179000000
C     1.652000000    -7.307000000    -2.419000000
H     2.499000000    -7.957000000    -2.214000000
C     0.631000000    -7.411000000    -1.461000000
H     0.706000000    -8.093000000    -0.617000000
C    -0.519000000    -6.729000000    -1.742000000
O    -1.557000000    -6.847000000    -0.860000000
C    -1.748000000    -5.952000000     0.108000000
C    -3.059000000    -5.570000000     0.448000000
H    -3.952000000    -5.984000000    -0.015000000
C    -3.278000000    -4.634000000     1.409000000
O    -4.593000000    -4.151000000     1.555000000
C    -5.032000000    -3.579000000     2.677000000
C    -5.266000000    -2.203000000     2.688000000
H    -5.052000000    -1.573000000     1.828000000
C    -5.154000000    -4.325000000     3.871000000
H    -4.931000000    -5.389000000     3.870000000
C    -5.604000000    -3.682000000     5.015000000
H    -5.602000000    -4.239000000     5.948000000
C    -5.953000000    -2.337000000     4.968000000
H    -6.427000000    -1.916000000     5.851000000
C    -5.666000000    -1.622000000     3.813000000
O    -6.003000000    -0.260000000     3.888000000
C    -5.146000000     0.655000000     3.320000000
C    -5.725000000     1.658000000     2.519000000
H    -6.791000000     1.589000000     2.317000000
C    -4.831000000     2.554000000     1.893000000
O    -5.382000000     3.449000000     0.961000000
C    -4.679000000     4.566000000     0.532000000
C    -4.630000000     5.727000000     1.319000000
H    -4.746000000     5.593000000     2.391000000
C    -3.985000000     6.817000000     0.834000000
H    -3.725000000     7.665000000     1.462000000
C    -3.642000000     6.914000000    -0.498000000
H    -3.201000000     7.827000000    -0.889000000
C    -3.705000000     5.798000000    -1.308000000
C    -4.219000000     4.611000000    -0.776000000
H    -4.119000000     3.662000000    -1.298000000
C    -0.860000000     0.627000000    -1.450000000
H    -0.511000000     1.054000000    -2.386000000
C     0.122000000     0.275000000    -0.549000000
H     1.142000000     0.511000000    -0.844000000
C    -0.119000000    -0.312000000     0.657000000
H     0.653000000    -0.532000000     1.333000000
C    -1.401000000    -0.519000000     1.024000000
H    -1.680000000    -0.988000000     1.964000000
C    -2.421000000    -0.087000000     0.178000000
H    -3.441000000    -0.229000000     0.526000000
C    -2.181000000     0.333000000    -1.131000000
C    -3.287000000     0.875000000    -1.975000000
O    -4.403000000     0.427000000    -1.774000000
O    -3.148000000     1.598000000    -2.897000000
O    -2.723000000    -1.262000000    -7.995000000
H    -2.339000000    -0.755000000    -7.280000000
H    -2.048000000    -1.266000000    -8.674000000
O    -6.771000000     1.154000000    -0.479000000
H    -6.140000000     0.866000000    -1.139000000
H    -6.329000000     1.868000000    -0.021000000
O    -5.155000000     4.234000000    -6.334000000
H    -5.727000000     3.870000000    -5.658000000
H    -4.496000000     3.556000000    -6.481000000
O    -8.072000000    -2.233000000    -5.345000000
H    -8.673000000    -1.588000000    -5.719000000
H    -7.209000000    -1.967000000    -5.661000000
O    -3.400000000    -2.321000000    -4.602000000
H    -3.123000000    -2.697000000    -3.766000000
H    -3.287000000    -3.032000000    -5.233000000
O    -3.210000000    -3.386000000    -2.160000000
H    -2.538000000    -3.142000000    -1.524000000
H    -4.002000000    -2.947000000    -1.852000000
O    -5.266000000    -2.041000000    -1.183000000
H    -5.239000000    -1.091000000    -1.068000000
H    -6.072000000    -2.200000000    -1.673000000
O    -5.342000000    -1.558000000    -6.643000000
H    -4.807000000    -1.541000000    -7.437000000
H    -4.735000000    -1.825000000    -5.952000000
O    -3.367000000     2.261000000    -6.928000000
H    -2.888000000     1.662000000    -6.355000000
H    -4.117000000     1.752000000    -7.233000000
O    -6.717000000     5.216000000    -3.392000000
H    -6.054000000     4.540000000    -3.534000000
H    -6.220000000     5.983000000    -3.109000000
O    -7.881000000     1.465000000    -3.842000000
H    -7.132000000     0.875000000    -3.932000000
H    -7.927000000     1.923000000    -4.681000000
O    -7.932000000    -2.867000000    -2.543000000
H    -7.905000000    -2.804000000    -3.498000000
H    -8.805000000    -2.553000000    -2.307000000
O    -2.596000000     0.379000000    -5.251000000
H    -2.583000000     0.828000000    -4.406000000
H    -2.582000000    -0.551000000    -5.029000000
O    -8.685000000     2.824000000    -1.439000000
H    -8.413000000     3.052000000    -2.328000000
H    -8.132000000     2.080000000    -1.202000000
O    -0.742000000    -2.927000000    -0.904000000
H    -0.557000000    -3.594000000    -0.243000000
H    -0.541000000    -2.098000000    -0.470000000
O    -4.222000000    -5.639000000    -3.866000000
H    -4.445000000    -5.571000000    -4.794000000
H    -4.228000000    -4.735000000    -3.551000000
O    -5.198000000     2.971000000    -3.851000000
H    -4.342000000     2.835000000    -3.445000000
H    -5.585000000     2.097000000    -3.894000000
O    -9.212000000    -0.046000000     0.535000000
H    -9.639000000     0.771000000     0.795000000
H    -8.320000000     0.213000000     0.304000000
O    -5.723000000     0.128000000    -4.352000000
H    -5.298000000     0.284000000    -3.509000000
H    -5.425000000    -0.743000000    -4.613000000
