215
-1444.27332
C     2.250000000    -2.136000000    -4.086000000
H     2.326000000    -2.963000000    -3.385000000
C     2.739000000    -0.862000000    -3.830000000
C     2.663000000     0.081000000    -4.876000000
H     3.020000000     1.103000000    -4.781000000
C     3.360000000    -0.589000000    -2.457000000
O     4.029000000    -1.747000000    -1.991000000
H     2.561000000    -0.351000000    -1.739000000
O     4.230000000     0.549000000    -2.537000000
C     4.108000000     1.412000000    -1.486000000
C     3.176000000     2.411000000    -1.569000000
H     2.613000000     2.407000000    -2.499000000
C     3.076000000     3.334000000    -0.571000000
O     2.154000000     4.297000000    -0.777000000
C     3.750000000     3.094000000     0.637000000
C     3.389000000     4.022000000     1.796000000
H     4.231000000     4.076000000     2.489000000
C     2.116000000     3.517000000     2.559000000
C     2.149000000     2.587000000     3.589000000
H     3.049000000     2.055000000     3.888000000
H     3.306000000     5.038000000     1.405000000
C     4.554000000     2.003000000     0.836000000
H     5.088000000     1.793000000     1.759000000
C     4.723000000     1.089000000    -0.245000000
C     5.522000000    -0.218000000    -0.002000000
H     6.188000000    -0.032000000     0.844000000
H     6.237000000    -0.261000000    -0.826000000
C     4.687000000    -1.406000000     0.345000000
C     4.464000000    -1.777000000     1.720000000
H     4.905000000    -1.306000000     2.594000000
C     4.003000000    -2.143000000    -0.600000000
C     3.140000000    -3.190000000    -0.265000000
H     2.504000000    -3.748000000    -0.947000000
C     2.917000000    -3.511000000     1.082000000
O     1.944000000    -4.411000000     1.380000000
C     0.588000000    -3.978000000     1.635000000
C    -0.433000000    -4.811000000     0.869000000
C    -1.785000000    -4.800000000     1.259000000
H    -2.092000000    -4.287000000     2.166000000
C    -0.090000000    -5.500000000    -0.277000000
H     0.958000000    -5.665000000    -0.518000000
O     0.479000000    -4.075000000     3.045000000
H     0.469000000    -2.926000000     1.337000000
C     3.622000000    -2.843000000     2.082000000
C     3.328000000    -3.020000000     3.542000000
H     4.063000000    -2.504000000     4.163000000
H     3.317000000    -4.049000000     3.910000000
C     1.988000000    -2.307000000     3.943000000
C     2.011000000    -0.973000000     4.517000000
H     2.921000000    -0.381000000     4.566000000
C     0.699000000    -2.834000000     3.620000000
C    -0.490000000    -2.144000000     3.825000000
H    -1.452000000    -2.598000000     3.602000000
C    -0.428000000    -0.821000000     4.315000000
O    -1.571000000    -0.090000000     4.532000000
C    -1.805000000     1.099000000     3.736000000
C    -3.284000000     1.094000000     3.296000000
C    -3.923000000    -0.217000000     3.143000000
H    -3.419000000    -1.131000000     3.445000000
C    -4.009000000     2.235000000     3.014000000
H    -3.537000000     3.213000000     3.065000000
O    -1.331000000     2.275000000     4.456000000
H    -1.196000000     1.130000000     2.821000000
C     0.826000000    -0.292000000     4.712000000
C     1.001000000     1.131000000     5.360000000
H     1.884000000     1.181000000     6.000000000
H     0.226000000     1.348000000     6.098000000
C     0.994000000     2.169000000     4.288000000
C    -0.160000000     2.768000000     3.948000000
C    -0.241000000     3.708000000     2.878000000
H    -1.203000000     4.089000000     2.544000000
C     0.940000000     4.063000000     2.178000000
O     0.826000000     4.848000000     1.070000000
C     0.843000000     4.083000000    -0.150000000
H     0.646000000     3.039000000     0.136000000
C    -0.277000000     4.386000000    -1.205000000
C    -0.091000000     4.105000000    -2.612000000
H     0.865000000     3.711000000    -2.947000000
C    -1.554000000     4.820000000    -0.828000000
H    -1.782000000     4.801000000     0.235000000
C    -2.562000000     5.151000000    -1.775000000
O    -3.710000000     5.826000000    -1.372000000
C    -2.254000000     5.093000000    -3.105000000
H    -2.922000000     5.462000000    -3.879000000
C    -1.053000000     4.460000000    -3.518000000
O    -0.732000000     4.278000000    -4.844000000
C     0.429000000     3.856000000    -5.403000000
C     0.476000000     2.623000000    -6.040000000
H    -0.432000000     2.030000000    -6.110000000
C     1.566000000     4.654000000    -5.290000000
H     1.445000000     5.639000000    -4.846000000
C     2.731000000     4.258000000    -5.926000000
H     3.608000000     4.900000000    -5.933000000
C     2.789000000     2.978000000    -6.517000000
H     3.710000000     2.610000000    -6.963000000
C     1.674000000     2.159000000    -6.549000000
O     1.725000000     0.838000000    -6.942000000
C     2.002000000    -0.209000000    -6.047000000
C     1.682000000    -1.513000000    -6.366000000
H     1.228000000    -1.835000000    -7.299000000
C     1.722000000    -2.452000000    -5.334000000
O     1.257000000    -3.725000000    -5.594000000
C     1.280000000    -4.803000000    -4.795000000
C     0.239000000    -5.114000000    -3.897000000
H    -0.632000000    -4.465000000    -3.840000000
C     2.169000000    -5.811000000    -5.136000000
H     2.946000000    -5.734000000    -5.893000000
C     2.097000000    -7.050000000    -4.496000000
H     2.660000000    -7.909000000    -4.851000000
C     1.213000000    -7.283000000    -3.513000000
H     1.120000000    -8.263000000    -3.053000000
C     0.212000000    -6.324000000    -3.221000000
O    -0.719000000    -6.708000000    -2.290000000
C    -1.043000000    -5.965000000    -1.159000000
C    -2.405000000    -5.910000000    -0.783000000
H    -3.238000000    -6.366000000    -1.312000000
C    -2.741000000    -5.441000000     0.480000000
O    -4.091000000    -5.364000000     0.895000000
C    -4.592000000    -4.648000000     1.992000000
C    -5.125000000    -3.366000000     1.786000000
H    -5.114000000    -2.981000000     0.769000000
C    -4.610000000    -5.227000000     3.292000000
H    -4.232000000    -6.231000000     3.467000000
C    -5.272000000    -4.520000000     4.324000000
H    -5.287000000    -5.006000000     5.296000000
C    -5.749000000    -3.213000000     4.143000000
H    -5.975000000    -2.559000000     4.982000000
C    -5.632000000    -2.661000000     2.860000000
O    -6.027000000    -1.368000000     2.631000000
C    -5.276000000    -0.241000000     2.792000000
C    -5.951000000     0.925000000     2.411000000
H    -6.913000000     0.818000000     1.916000000
C    -5.298000000     2.201000000     2.574000000
O    -5.904000000     3.380000000     2.237000000
C    -5.281000000     4.517000000     1.648000000
C    -5.462000000     5.637000000     2.434000000
H    -5.929000000     5.443000000     3.397000000
C    -5.019000000     6.871000000     1.897000000
H    -5.227000000     7.869000000     2.272000000
C    -4.417000000     6.880000000     0.591000000
H    -4.050000000     7.856000000     0.285000000
C    -4.172000000     5.725000000    -0.085000000
C    -4.715000000     4.528000000     0.438000000
H    -4.737000000     3.599000000    -0.126000000
C    -1.697000000     0.624000000    -1.750000000
H    -1.668000000     1.426000000    -2.484000000
C    -0.574000000     0.276000000    -1.021000000
H     0.296000000     0.903000000    -1.198000000
C    -0.621000000    -0.668000000    -0.020000000
H     0.323000000    -0.838000000     0.542000000
C    -1.861000000    -1.379000000     0.208000000
H    -1.957000000    -2.039000000     1.067000000
C    -2.974000000    -1.049000000    -0.487000000
H    -3.924000000    -1.516000000    -0.241000000
C    -2.972000000    -0.028000000    -1.499000000
C    -4.271000000     0.362000000    -2.122000000
O    -5.341000000    -0.288000000    -2.005000000
O    -4.339000000     1.213000000    -2.957000000
O    -7.265000000    -4.341000000    -0.890000000
H    -8.041000000    -4.169000000    -1.423000000
H    -6.636000000    -3.671000000    -1.158000000
O    -7.420000000    -0.347000000    -0.227000000
H    -6.661000000    -0.566000000    -0.767000000
H    -7.926000000     0.265000000    -0.762000000
O    -5.769000000     4.025000000    -6.317000000
H    -5.269000000     4.802000000    -6.566000000
H    -5.571000000     3.900000000    -5.389000000
O   -10.215000000     0.473000000    -1.527000000
H    -9.557000000    -0.221000000    -1.565000000
H   -11.044000000     0.026000000    -1.696000000
O    -6.072000000    -5.000000000    -3.911000000
H    -5.621000000    -4.298000000    -3.442000000
H    -6.880000000    -4.596000000    -4.227000000
O    -3.603000000    -4.489000000    -5.730000000
H    -3.443000000    -3.880000000    -5.009000000
H    -4.438000000    -4.207000000    -6.102000000
O    -5.941000000     6.086000000    -3.458000000
H    -5.634000000     5.193000000    -3.302000000
H    -6.641000000     5.990000000    -4.104000000
O    -5.101000000    -2.915000000    -2.658000000
H    -4.170000000    -2.996000000    -2.867000000
H    -5.205000000    -2.006000000    -2.376000000
O    -7.955000000    -2.979000000    -4.262000000
H    -8.782000000    -3.217000000    -3.842000000
H    -7.732000000    -2.127000000    -3.887000000
O    -8.689000000     2.864000000     0.950000000
H    -8.118000000     3.592000000     1.195000000
H    -8.235000000     2.437000000     0.224000000
O    -9.890000000    -0.937000000    -5.075000000
H   -10.177000000    -0.084000000    -4.751000000
H    -8.952000000    -0.961000000    -4.886000000
O    -2.868000000     1.346000000    -5.167000000
H    -3.274000000     1.432000000    -4.304000000
H    -3.023000000     2.191000000    -5.589000000
O    -5.159000000    -1.309000000    -5.677000000
H    -4.225000000    -1.192000000    -5.506000000
H    -5.469000000    -0.438000000    -5.925000000
O    -6.510000000     1.087000000    -6.825000000
H    -7.345000000     1.025000000    -7.290000000
H    -6.627000000     1.819000000    -6.220000000
O    -2.365000000    -1.342000000    -5.515000000
H    -2.482000000    -0.395000000    -5.440000000
H    -1.894000000    -1.461000000    -6.340000000
O    -2.359000000    -2.636000000    -3.203000000
H    -2.442000000    -2.220000000    -4.061000000
H    -2.086000000    -1.928000000    -2.619000000
O    -5.762000000     3.212000000    -3.574000000
H    -5.170000000     2.460000000    -3.590000000
H    -6.358000000     3.033000000    -2.847000000
O    -8.118000000     2.496000000    -1.686000000
H    -8.219000000     3.445000000    -1.603000000
H    -8.860000000     2.223000000    -2.225000000
O    -7.294000000    -0.219000000    -4.074000000
H    -6.627000000     0.011000000    -3.427000000
H    -6.878000000    -0.887000000    -4.619000000
