215
-1475.31130
C     1.693000000    -2.211000000    -4.175000000
H     1.744000000    -2.921000000    -3.354000000
C     2.526000000    -1.129000000    -3.934000000
C     2.632000000    -0.119000000    -4.858000000
H     3.345000000     0.695000000    -4.751000000
C     3.137000000    -0.944000000    -2.601000000
O     3.760000000    -2.103000000    -2.183000000
H     2.388000000    -0.591000000    -1.876000000
O     4.153000000     0.092000000    -2.529000000
C     4.307000000     0.878000000    -1.406000000
C     3.679000000     2.139000000    -1.471000000
H     3.294000000     2.447000000    -2.440000000
C     3.681000000     2.986000000    -0.351000000
O     2.811000000     4.071000000    -0.458000000
C     4.167000000     2.467000000     0.851000000
C     3.987000000     3.333000000     2.091000000
H     4.772000000     2.995000000     2.771000000
C     2.670000000     2.990000000     2.830000000
C     2.531000000     2.119000000     3.934000000
H     3.373000000     1.517000000     4.264000000
H     4.131000000     4.388000000     1.850000000
C     4.712000000     1.188000000     0.899000000
H     5.191000000     0.885000000     1.826000000
C     4.919000000     0.386000000    -0.234000000
C     5.529000000    -1.049000000    -0.102000000
H     6.292000000    -0.937000000     0.671000000
H     5.923000000    -1.373000000    -1.068000000
C     4.430000000    -2.016000000     0.176000000
C     4.127000000    -2.383000000     1.498000000
H     4.768000000    -2.016000000     2.296000000
C     3.597000000    -2.506000000    -0.854000000
C     2.602000000    -3.404000000    -0.562000000
H     2.006000000    -3.728000000    -1.411000000
C     2.359000000    -3.795000000     0.748000000
O     1.347000000    -4.668000000     0.981000000
C     0.150000000    -4.120000000     1.446000000
C    -1.009000000    -4.581000000     0.660000000
C    -2.339000000    -4.231000000     0.984000000
H    -2.426000000    -3.698000000     1.927000000
C    -0.815000000    -5.257000000    -0.571000000
H     0.204000000    -5.496000000    -0.867000000
O    -0.014000000    -4.282000000     2.930000000
H     0.278000000    -3.040000000     1.284000000
C     3.056000000    -3.191000000     1.782000000
C     2.842000000    -3.516000000     3.275000000
H     3.742000000    -3.235000000     3.826000000
H     2.645000000    -4.577000000     3.444000000
C     1.700000000    -2.716000000     3.835000000
C     1.960000000    -1.523000000     4.505000000
H     2.971000000    -1.257000000     4.801000000
C     0.382000000    -3.116000000     3.613000000
C    -0.628000000    -2.255000000     3.917000000
H    -1.643000000    -2.521000000     3.633000000
C    -0.390000000    -1.060000000     4.486000000
O    -1.492000000    -0.237000000     4.675000000
C    -1.714000000     0.980000000     3.964000000
C    -3.227000000     1.184000000     3.640000000
C    -4.086000000     0.086000000     3.601000000
H    -3.858000000    -0.874000000     4.058000000
C    -3.634000000     2.424000000     3.093000000
H    -2.956000000     3.270000000     3.174000000
O    -1.065000000     2.113000000     4.627000000
H    -1.275000000     0.890000000     2.959000000
C     0.960000000    -0.687000000     4.875000000
C     1.282000000     0.618000000     5.548000000
H     2.266000000     0.503000000     6.006000000
H     0.536000000     0.825000000     6.319000000
C     1.349000000     1.696000000     4.492000000
C     0.184000000     2.435000000     4.125000000
C     0.286000000     3.352000000     3.014000000
H    -0.604000000     3.917000000     2.750000000
C     1.497000000     3.611000000     2.383000000
O     1.377000000     4.446000000     1.287000000
C     1.455000000     3.872000000     0.011000000
H     1.213000000     2.801000000     0.080000000
C     0.348000000     4.371000000    -0.960000000
C     0.525000000     4.079000000    -2.346000000
H     1.384000000     3.471000000    -2.619000000
C    -0.769000000     5.070000000    -0.582000000
H    -0.803000000     5.451000000     0.436000000
C    -1.735000000     5.537000000    -1.502000000
O    -2.660000000     6.379000000    -1.103000000
C    -1.508000000     5.298000000    -2.900000000
H    -2.219000000     5.649000000    -3.644000000
C    -0.363000000     4.632000000    -3.280000000
O    -0.212000000     4.441000000    -4.623000000
C     0.946000000     4.034000000    -5.250000000
C     1.027000000     2.676000000    -5.603000000
H     0.205000000     2.039000000    -5.287000000
C     1.934000000     4.906000000    -5.705000000
H     1.844000000     5.960000000    -5.455000000
C     3.015000000     4.454000000    -6.498000000
H     3.772000000     5.165000000    -6.822000000
C     3.156000000     3.091000000    -6.777000000
H     3.970000000     2.844000000    -7.454000000
C     2.129000000     2.235000000    -6.427000000
O     2.014000000     0.923000000    -6.863000000
C     1.928000000    -0.109000000    -6.015000000
C     1.129000000    -1.221000000    -6.318000000
H     0.560000000    -1.252000000    -7.244000000
C     1.056000000    -2.290000000    -5.418000000
O     0.383000000    -3.404000000    -5.804000000
C     0.469000000    -4.560000000    -5.016000000
C    -0.524000000    -4.768000000    -4.036000000
H    -1.367000000    -4.085000000    -3.970000000
C     1.458000000    -5.487000000    -5.194000000
H     2.201000000    -5.412000000    -5.984000000
C     1.507000000    -6.644000000    -4.411000000
H     2.329000000    -7.345000000    -4.527000000
C     0.490000000    -6.910000000    -3.543000000
H     0.393000000    -7.872000000    -3.046000000
C    -0.495000000    -5.961000000    -3.325000000
O    -1.656000000    -6.239000000    -2.555000000
C    -1.895000000    -5.541000000    -1.389000000
C    -3.193000000    -5.376000000    -0.962000000
H    -4.035000000    -5.772000000    -1.524000000
C    -3.413000000    -4.800000000     0.271000000
O    -4.735000000    -4.852000000     0.706000000
C    -5.198000000    -4.234000000     1.827000000
C    -5.470000000    -2.890000000     1.768000000
H    -5.178000000    -2.371000000     0.858000000
C    -5.641000000    -4.910000000     2.954000000
H    -5.574000000    -5.995000000     2.957000000
C    -6.036000000    -4.159000000     4.109000000
H    -6.326000000    -4.768000000     4.962000000
C    -6.234000000    -2.770000000     4.026000000
H    -6.768000000    -2.203000000     4.783000000
C    -5.921000000    -2.138000000     2.805000000
O    -6.191000000    -0.792000000     2.628000000
C    -5.280000000     0.189000000     2.887000000
C    -5.683000000     1.478000000     2.387000000
H    -6.681000000     1.545000000     1.962000000
C    -4.868000000     2.590000000     2.549000000
O    -5.472000000     3.792000000     2.038000000
C    -4.771000000     4.947000000     1.689000000
C    -4.922000000     6.047000000     2.439000000
H    -5.362000000     6.062000000     3.433000000
C    -4.336000000     7.229000000     2.086000000
H    -4.676000000     8.110000000     2.624000000
C    -3.578000000     7.411000000     0.927000000
H    -3.123000000     8.377000000     0.724000000
C    -3.363000000     6.275000000     0.113000000
C    -3.905000000     5.015000000     0.530000000
H    -3.735000000     4.142000000    -0.096000000
C    -1.477000000     1.283000000    -1.730000000
H    -1.453000000     1.934000000    -2.600000000
C    -0.333000000     0.685000000    -1.265000000
H     0.626000000     0.938000000    -1.709000000
C    -0.353000000    -0.142000000    -0.181000000
H     0.575000000    -0.569000000     0.216000000
C    -1.541000000    -0.379000000     0.526000000
H    -1.515000000    -0.820000000     1.519000000
C    -2.676000000     0.258000000     0.109000000
H    -3.623000000     0.007000000     0.580000000
C    -2.706000000     1.088000000    -1.026000000
C    -4.050000000     1.683000000    -1.475000000
O    -5.088000000     1.114000000    -1.135000000
O    -4.105000000     2.710000000    -2.167000000
O    -6.797000000    -3.006000000    -1.669000000
H    -7.216000000    -2.463000000    -2.337000000
H    -5.931000000    -2.616000000    -1.553000000
O    -7.448000000     2.263000000    -0.691000000
H    -6.567000000     1.920000000    -0.842000000
H    -7.372000000     3.202000000    -0.859000000
O    -4.749000000     4.139000000    -6.716000000
H    -4.271000000     4.210000000    -7.542000000
H    -5.523000000     4.688000000    -6.839000000
O    -8.692000000    -2.391000000    -4.279000000
H    -8.967000000    -3.189000000    -3.828000000
H    -8.533000000    -1.762000000    -3.576000000
O    -3.712000000    -1.695000000    -5.448000000
H    -3.288000000    -0.872000000    -5.205000000
H    -4.444000000    -1.432000000    -6.007000000
O    -6.102000000     6.791000000    -4.014000000
H    -5.838000000     5.980000000    -3.580000000
H    -6.929000000     7.030000000    -3.594000000
O    -9.243000000     0.622000000     0.280000000
H   -10.071000000     1.044000000     0.050000000
H    -8.572000000     1.250000000     0.013000000
O    -4.626000000    -1.651000000    -1.428000000
H    -3.688000000    -1.813000000    -1.528000000
H    -4.715000000    -0.701000000    -1.508000000
O    -8.150000000    -2.052000000     0.510000000
H    -8.304000000    -1.135000000     0.736000000
H    -7.542000000    -2.018000000    -0.228000000
O    -7.890000000    -0.346000000    -2.399000000
H    -8.261000000     0.231000000    -1.732000000
H    -7.055000000     0.061000000    -2.631000000
O    -8.007000000     0.710000000    -6.151000000
H    -8.661000000     1.206000000    -5.660000000
H    -7.220000000     0.746000000    -5.606000000
O    -3.672000000     2.321000000    -4.690000000
H    -3.802000000     2.549000000    -3.770000000
H    -4.043000000     3.060000000    -5.174000000
O    -1.936000000     0.274000000    -5.048000000
H    -2.409000000     1.030000000    -4.699000000
H    -1.884000000     0.438000000    -5.989000000
O    -4.316000000    -3.773000000    -3.621000000
H    -3.790000000    -3.819000000    -2.823000000
H    -3.938000000    -3.046000000    -4.116000000
O    -1.782000000    -1.862000000    -2.512000000
H    -1.414000000    -1.209000000    -1.916000000
H    -1.767000000    -1.438000000    -3.371000000
O    -8.064000000     3.978000000    -4.560000000
H    -7.797000000     4.420000000    -5.366000000
H    -7.290000000     4.017000000    -3.998000000
O    -5.936000000     4.343000000    -2.825000000
H    -5.233000000     3.753000000    -2.555000000
H    -6.283000000     4.695000000    -2.005000000
O    -7.193000000     5.683000000    -0.685000000
H    -6.676000000     6.465000000    -0.493000000
H    -8.080000000     5.907000000    -0.404000000
O    -6.011000000     0.984000000    -3.953000000
H    -5.850000000     1.173000000    -3.029000000
H    -5.214000000     1.271000000    -4.399000000
