215
-1445.34589
C     2.078000000    -1.627000000    -4.339000000
H     2.382000000    -2.578000000    -3.910000000
C     2.596000000    -0.457000000    -3.806000000
C     2.143000000     0.764000000    -4.292000000
H     2.673000000     1.651000000    -3.956000000
C     3.461000000    -0.497000000    -2.533000000
O     4.067000000    -1.749000000    -2.256000000
H     2.811000000    -0.257000000    -1.679000000
O     4.423000000     0.628000000    -2.545000000
C     4.648000000     1.148000000    -1.296000000
C     4.033000000     2.350000000    -1.077000000
H     3.581000000     2.811000000    -1.952000000
C     3.888000000     2.917000000     0.113000000
O     3.106000000     4.151000000     0.171000000
C     4.289000000     2.226000000     1.245000000
C     3.935000000     2.766000000     2.635000000
H     4.716000000     2.268000000     3.212000000
C     2.479000000     2.433000000     3.027000000
C     2.297000000     1.386000000     3.941000000
H     3.076000000     0.672000000     4.195000000
H     4.106000000     3.843000000     2.693000000
C     5.022000000     1.037000000     1.064000000
H     5.391000000     0.503000000     1.936000000
C     5.119000000     0.426000000    -0.178000000
C     5.634000000    -1.006000000    -0.132000000
H     6.508000000    -1.065000000     0.520000000
H     6.113000000    -1.175000000    -1.098000000
C     4.395000000    -1.930000000     0.111000000
C     4.155000000    -2.500000000     1.360000000
H     4.802000000    -2.306000000     2.212000000
C     3.735000000    -2.338000000    -1.060000000
C     2.616000000    -3.162000000    -0.951000000
H     2.013000000    -3.311000000    -1.843000000
C     2.401000000    -3.786000000     0.316000000
O     1.418000000    -4.733000000     0.406000000
C     0.083000000    -4.169000000     0.818000000
C    -1.053000000    -4.692000000    -0.030000000
C    -2.301000000    -4.869000000     0.589000000
H    -2.501000000    -4.639000000     1.633000000
C    -1.008000000    -4.895000000    -1.391000000
H    -0.075000000    -4.735000000    -1.927000000
O    -0.153000000    -4.504000000     2.226000000
H     0.162000000    -3.075000000     0.733000000
C     3.096000000    -3.388000000     1.498000000
C     2.602000000    -3.963000000     2.899000000
H     3.418000000    -3.931000000     3.624000000
H     2.368000000    -5.026000000     2.804000000
C     1.364000000    -3.178000000     3.381000000
C     1.515000000    -2.119000000     4.187000000
H     2.531000000    -1.880000000     4.488000000
C     0.044000000    -3.501000000     3.054000000
C    -1.003000000    -2.728000000     3.489000000
H    -1.998000000    -3.107000000     3.271000000
C    -0.787000000    -1.605000000     4.260000000
O    -1.848000000    -0.749000000     4.542000000
C    -1.977000000     0.366000000     3.626000000
C    -3.357000000     0.577000000     3.022000000
C    -4.234000000    -0.559000000     2.985000000
H    -3.900000000    -1.424000000     3.552000000
C    -3.574000000     1.753000000     2.266000000
H    -2.872000000     2.582000000     2.246000000
O    -1.403000000     1.591000000     4.231000000
H    -1.217000000     0.142000000     2.863000000
C     0.523000000    -1.222000000     4.574000000
C     0.768000000     0.010000000     5.383000000
H     1.701000000    -0.119000000     5.936000000
H    -0.039000000     0.104000000     6.112000000
C     1.024000000     1.170000000     4.468000000
C    -0.090000000     1.930000000     4.080000000
C     0.131000000     2.961000000     3.147000000
H    -0.781000000     3.486000000     2.873000000
C     1.406000000     3.293000000     2.737000000
O     1.542000000     4.383000000     1.925000000
C     1.690000000     4.072000000     0.535000000
H     1.296000000     3.094000000     0.222000000
C     0.866000000     5.052000000    -0.259000000
C     1.145000000     5.242000000    -1.604000000
H     2.064000000     4.853000000    -2.036000000
C    -0.307000000     5.610000000     0.224000000
H    -0.672000000     5.348000000     1.214000000
C    -1.183000000     6.313000000    -0.637000000
O    -2.395000000     6.818000000    -0.158000000
C    -0.782000000     6.642000000    -1.922000000
H    -1.482000000     7.188000000    -2.551000000
C     0.350000000     6.065000000    -2.450000000
O     0.634000000     6.286000000    -3.787000000
C     1.300000000     5.383000000    -4.536000000
C     0.758000000     4.173000000    -4.926000000
H    -0.214000000     3.907000000    -4.516000000
C     2.642000000     5.634000000    -4.725000000
H     3.081000000     6.573000000    -4.400000000
C     3.406000000     4.683000000    -5.434000000
H     4.476000000     4.805000000    -5.582000000
C     2.820000000     3.526000000    -5.856000000
H     3.474000000     2.774000000    -6.290000000
C     1.509000000     3.259000000    -5.593000000
O     0.914000000     2.101000000    -5.960000000
C     1.278000000     0.842000000    -5.373000000
C     0.895000000    -0.315000000    -6.064000000
H     0.176000000    -0.239000000    -6.876000000
C     1.220000000    -1.528000000    -5.484000000
O     0.597000000    -2.611000000    -5.979000000
C     0.397000000    -3.849000000    -5.428000000
C    -0.751000000    -4.105000000    -4.597000000
H    -1.501000000    -3.335000000    -4.431000000
C     1.383000000    -4.795000000    -5.467000000
H     2.319000000    -4.574000000    -5.974000000
C     1.216000000    -6.004000000    -4.787000000
H     2.051000000    -6.699000000    -4.768000000
C    -0.001000000    -6.358000000    -4.159000000
H    -0.168000000    -7.352000000    -3.753000000
C    -0.992000000    -5.340000000    -4.069000000
O    -2.107000000    -5.547000000    -3.371000000
C    -2.116000000    -5.357000000    -2.062000000
C    -3.265000000    -5.698000000    -1.432000000
H    -4.075000000    -5.974000000    -2.102000000
C    -3.389000000    -5.355000000    -0.087000000
O    -4.627000000    -5.530000000     0.450000000
C    -5.197000000    -4.784000000     1.432000000
C    -5.503000000    -3.463000000     1.242000000
H    -5.338000000    -2.935000000     0.306000000
C    -5.184000000    -5.305000000     2.708000000
H    -4.899000000    -6.308000000     3.015000000
C    -5.715000000    -4.555000000     3.751000000
H    -5.964000000    -4.974000000     4.723000000
C    -6.067000000    -3.272000000     3.563000000
H    -6.567000000    -2.694000000     4.335000000
C    -6.058000000    -2.707000000     2.311000000
O    -6.365000000    -1.422000000     2.114000000
C    -5.474000000    -0.409000000     2.350000000
C    -5.746000000     0.824000000     1.796000000
H    -6.731000000     1.063000000     1.403000000
C    -4.840000000     1.916000000     1.784000000
O    -5.221000000     3.087000000     1.067000000
C    -4.615000000     4.276000000     1.377000000
C    -4.983000000     4.937000000     2.529000000
H    -5.555000000     4.372000000     3.260000000
C    -4.407000000     6.216000000     2.827000000
H    -4.705000000     6.739000000     3.733000000
C    -3.523000000     6.850000000     1.907000000
H    -3.242000000     7.899000000     1.958000000
C    -3.157000000     6.116000000     0.743000000
C    -3.615000000     4.821000000     0.524000000
H    -3.522000000     4.218000000    -0.376000000
C    -0.672000000     1.484000000    -1.384000000
H    -0.336000000     2.283000000    -2.041000000
C     0.238000000     0.765000000    -0.633000000
H     1.314000000     0.903000000    -0.705000000
C    -0.245000000    -0.318000000     0.159000000
H     0.493000000    -0.801000000     0.837000000
C    -1.633000000    -0.494000000     0.365000000
H    -2.100000000    -1.169000000     1.077000000
C    -2.508000000     0.271000000    -0.401000000
H    -3.575000000     0.184000000    -0.208000000
C    -2.041000000     1.287000000    -1.262000000
C    -3.054000000     2.096000000    -2.019000000
O    -4.253000000     1.897000000    -1.894000000
O    -2.829000000     2.854000000    -2.926000000
O    -6.902000000     3.106000000    -1.013000000
H    -6.033000000     2.743000000    -1.187000000
H    -7.055000000     2.924000000    -0.086000000
O    -2.079000000     5.927000000    -5.701000000
H    -2.208000000     5.844000000    -6.646000000
H    -1.564000000     6.728000000    -5.599000000
O    -1.014000000     2.087000000    -8.261000000
H    -0.851000000     2.864000000    -8.795000000
H    -1.210000000     2.430000000    -7.390000000
O    -8.593000000    -0.361000000    -1.195000000
H    -7.751000000    -0.207000000    -1.622000000
H    -9.000000000     0.505000000    -1.150000000
O    -6.076000000    -0.040000000    -2.391000000
H    -5.873000000    -0.066000000    -3.326000000
H    -5.537000000     0.672000000    -2.049000000
O    -6.352000000     5.304000000    -2.590000000
H    -5.481000000     5.314000000    -2.986000000
H    -6.329000000     4.568000000    -1.979000000
O    -2.486000000     3.102000000    -5.686000000
H    -2.854000000     2.829000000    -4.846000000
H    -2.380000000     4.050000000    -5.605000000
O    -6.130000000    -0.411000000    -5.199000000
H    -6.843000000    -0.442000000    -5.837000000
H    -5.362000000    -0.714000000    -5.683000000
O    -9.778000000     2.074000000    -1.190000000
H    -9.009000000     2.561000000    -1.486000000
H   -10.488000000     2.717000000    -1.203000000
O    -1.956000000     0.376000000    -4.917000000
H    -1.306000000     0.733000000    -5.522000000
H    -2.417000000     1.145000000    -4.581000000
O    -8.357000000     3.615000000    -5.554000000
H    -9.015000000     4.214000000    -5.201000000
H    -7.524000000     3.954000000    -5.226000000
O    -8.010000000     4.579000000     1.109000000
H    -7.217000000     4.679000000     0.582000000
H    -8.720000000     4.851000000     0.527000000
O    -4.275000000    -2.570000000    -2.234000000
H    -4.565000000    -1.661000000    -2.311000000
H    -3.397000000    -2.574000000    -2.615000000
O    -3.706000000    -1.323000000    -6.489000000
H    -3.222000000    -0.926000000    -7.213000000
H    -3.178000000    -1.131000000    -5.714000000
O    -1.818000000    -1.485000000    -2.709000000
H    -1.447000000    -1.079000000    -1.925000000
H    -1.798000000    -0.793000000    -3.369000000
O    -4.078000000     8.118000000    -3.280000000
H    -3.951000000     7.180000000    -3.134000000
H    -4.202000000     8.482000000    -2.404000000
O    -5.852000000     4.552000000    -6.237000000
H    -5.592000000     3.820000000    -5.678000000
H    -5.787000000     4.207000000    -7.128000000
O    -3.575000000     5.303000000    -3.259000000
H    -3.174000000     4.467000000    -3.020000000
H    -3.320000000     5.438000000    -4.172000000
O    -5.481000000     2.707000000    -4.302000000
H    -4.849000000     2.502000000    -3.612000000
H    -6.020000000     1.919000000    -4.375000000
