215
-1462.22278
C     3.737000000    -1.568000000    -3.590000000
H     3.952000000    -2.334000000    -2.850000000
C     3.721000000    -0.278000000    -3.168000000
C     3.417000000     0.768000000    -4.058000000
H     3.521000000     1.786000000    -3.690000000
C     4.083000000     0.010000000    -1.717000000
O     4.731000000    -1.033000000    -0.966000000
H     3.142000000     0.026000000    -1.147000000
O     4.588000000     1.294000000    -1.507000000
C     4.110000000     2.100000000    -0.493000000
C     3.199000000     3.132000000    -0.768000000
H     2.949000000     3.367000000    -1.800000000
C     2.681000000     3.923000000     0.220000000
O     1.648000000     4.763000000    -0.165000000
C     2.954000000     3.618000000     1.549000000
C     2.328000000     4.439000000     2.732000000
H     3.033000000     4.340000000     3.560000000
C     0.928000000     3.800000000     3.092000000
C     0.917000000     2.796000000     4.048000000
H     1.837000000     2.434000000     4.500000000
H     2.210000000     5.486000000     2.444000000
C     3.728000000     2.497000000     1.868000000
H     3.942000000     2.216000000     2.896000000
C     4.396000000     1.789000000     0.816000000
C     5.229000000     0.591000000     1.137000000
H     5.666000000     0.898000000     2.090000000
H     5.984000000     0.493000000     0.354000000
C     4.470000000    -0.624000000     1.366000000
C     4.015000000    -1.073000000     2.603000000
H     4.189000000    -0.442000000     3.471000000
C     4.204000000    -1.396000000     0.252000000
C     3.513000000    -2.597000000     0.318000000
H     3.427000000    -3.237000000    -0.556000000
C     3.106000000    -3.048000000     1.571000000
O     2.274000000    -4.103000000     1.446000000
C     0.884000000    -3.809000000     1.556000000
C     0.137000000    -4.690000000     0.623000000
C    -1.119000000    -5.163000000     0.965000000
H    -1.432000000    -5.154000000     2.005000000
C     0.537000000    -4.716000000    -0.708000000
H     1.458000000    -4.200000000    -0.967000000
O     0.489000000    -3.986000000     3.018000000
H     0.710000000    -2.762000000     1.267000000
C     3.351000000    -2.297000000     2.798000000
C     2.839000000    -2.667000000     4.165000000
H     3.520000000    -2.243000000     4.906000000
H     2.835000000    -3.746000000     4.333000000
C     1.407000000    -2.176000000     4.331000000
C     1.216000000    -0.982000000     5.031000000
H     2.111000000    -0.476000000     5.383000000
C     0.336000000    -2.880000000     3.798000000
C    -0.909000000    -2.357000000     3.977000000
H    -1.783000000    -2.903000000     3.632000000
C    -1.100000000    -1.095000000     4.504000000
O    -2.355000000    -0.505000000     4.461000000
C    -2.609000000     0.430000000     3.381000000
C    -3.850000000     0.157000000     2.550000000
C    -4.301000000    -1.143000000     2.428000000
H    -3.838000000    -1.969000000     2.961000000
C    -4.454000000     1.143000000     1.783000000
H    -4.068000000     2.156000000     1.697000000
O    -2.623000000     1.804000000     3.789000000
H    -1.825000000     0.347000000     2.614000000
C    -0.019000000    -0.329000000     4.967000000
C    -0.259000000     1.092000000     5.550000000
H     0.537000000     1.332000000     6.258000000
H    -1.196000000     1.127000000     6.109000000
C    -0.278000000     2.102000000     4.375000000
C    -1.451000000     2.514000000     3.752000000
C    -1.424000000     3.486000000     2.750000000
H    -2.293000000     3.698000000     2.134000000
C    -0.238000000     4.129000000     2.407000000
O    -0.319000000     4.910000000     1.326000000
C     0.287000000     4.334000000     0.133000000
H     0.423000000     3.247000000     0.233000000
C    -0.622000000     4.428000000    -1.078000000
C    -0.240000000     4.024000000    -2.329000000
H     0.698000000     3.540000000    -2.589000000
C    -1.927000000     4.947000000    -0.911000000
H    -2.318000000     5.199000000     0.072000000
C    -2.732000000     5.134000000    -1.991000000
O    -3.986000000     5.697000000    -1.754000000
C    -2.347000000     4.753000000    -3.213000000
H    -2.937000000     4.968000000    -4.100000000
C    -1.096000000     4.228000000    -3.396000000
O    -0.708000000     3.895000000    -4.654000000
C     0.534000000     3.879000000    -5.143000000
C     1.150000000     2.686000000    -5.405000000
H     0.614000000     1.756000000    -5.237000000
C     1.214000000     5.102000000    -5.256000000
H     0.830000000     6.070000000    -4.945000000
C     2.486000000     5.091000000    -5.751000000
H     3.048000000     5.987000000    -6.000000000
C     3.152000000     3.832000000    -6.015000000
H     4.208000000     3.685000000    -6.228000000
C     2.426000000     2.699000000    -5.873000000
O     2.942000000     1.479000000    -6.309000000
C     3.176000000     0.463000000    -5.450000000
C     3.283000000    -0.854000000    -5.869000000
H     3.097000000    -1.089000000    -6.914000000
C     3.535000000    -1.846000000    -4.926000000
O     3.614000000    -3.135000000    -5.451000000
C     3.083000000    -4.245000000    -4.751000000
C     1.784000000    -4.260000000    -4.309000000
H     1.111000000    -3.428000000    -4.501000000
C     3.907000000    -5.381000000    -4.561000000
H     4.930000000    -5.298000000    -4.918000000
C     3.447000000    -6.462000000    -3.842000000
H     4.107000000    -7.318000000    -3.721000000
C     2.219000000    -6.441000000    -3.229000000
H     1.961000000    -7.168000000    -2.464000000
C     1.313000000    -5.408000000    -3.593000000
O     0.071000000    -5.255000000    -3.059000000
C    -0.240000000    -5.321000000    -1.699000000
C    -1.469000000    -5.857000000    -1.330000000
H    -2.155000000    -6.356000000    -2.010000000
C    -1.848000000    -5.745000000    -0.034000000
O    -3.054000000    -6.362000000     0.259000000
C    -3.892000000    -5.767000000     1.138000000
C    -4.566000000    -4.631000000     0.762000000
H    -4.555000000    -4.311000000    -0.277000000
C    -3.888000000    -6.178000000     2.492000000
H    -3.326000000    -7.083000000     2.707000000
C    -4.567000000    -5.417000000     3.488000000
H    -4.555000000    -5.833000000     4.492000000
C    -5.223000000    -4.285000000     3.092000000
H    -5.695000000    -3.618000000     3.809000000
C    -5.223000000    -3.897000000     1.759000000
O    -5.830000000    -2.764000000     1.437000000
C    -5.439000000    -1.466000000     1.688000000
C    -5.962000000    -0.455000000     0.918000000
H    -6.766000000    -0.693000000     0.226000000
C    -5.515000000     0.841000000     0.888000000
O    -6.093000000     1.762000000     0.038000000
C    -5.891000000     3.143000000     0.024000000
C    -6.787000000     3.971000000     0.725000000
H    -7.571000000     3.541000000     1.343000000
C    -6.771000000     5.355000000     0.556000000
H    -7.514000000     5.996000000     1.024000000
C    -5.734000000     5.941000000    -0.216000000
H    -5.708000000     7.006000000    -0.430000000
C    -4.876000000     5.094000000    -0.924000000
C    -5.011000000     3.717000000    -0.875000000
H    -4.400000000     3.134000000    -1.559000000
C    -1.497000000     0.885000000    -1.177000000
H    -2.399000000     1.400000000    -1.499000000
C    -1.079000000     0.962000000     0.167000000
H    -1.640000000     1.534000000     0.902000000
C    -0.001000000     0.243000000     0.591000000
H     0.338000000     0.366000000     1.592000000
C     0.816000000    -0.505000000    -0.357000000
H     1.624000000    -1.122000000     0.029000000
C     0.433000000    -0.438000000    -1.712000000
H     1.053000000    -1.053000000    -2.359000000
C    -0.730000000     0.255000000    -2.142000000
C    -1.081000000     0.317000000    -3.635000000
O    -0.342000000    -0.234000000    -4.426000000
O    -1.986000000     1.051000000    -3.954000000
O    -1.132000000     3.766000000    -7.996000000
H    -1.042000000     4.690000000    -7.765000000
H    -1.286000000     3.323000000    -7.161000000
O    -4.792000000     1.844000000    -3.537000000
H    -4.758000000     2.404000000    -4.312000000
H    -3.874000000     1.707000000    -3.299000000
O    -0.708000000    -4.190000000    -6.825000000
H    -0.495000000    -3.284000000    -7.052000000
H    -0.771000000    -4.189000000    -5.870000000
O     0.047000000     1.834000000   -10.184000000
H    -0.426000000     1.002000000   -10.189000000
H    -0.179000000     2.233000000    -9.344000000
O    -1.410000000    -0.414000000   -10.703000000
H    -1.301000000    -0.756000000    -9.816000000
H    -2.200000000    -0.845000000   -11.030000000
O    -5.064000000     3.799000000    -5.776000000
H    -5.932000000     3.421000000    -5.915000000
H    -5.234000000     4.708000000    -5.529000000
O    -3.589000000    -5.468000000    -4.208000000
H    -3.589000000    -4.527000000    -4.032000000
H    -4.282000000    -5.817000000    -3.647000000
O    -1.380000000    -2.756000000    -4.196000000
H    -0.894000000    -1.954000000    -4.387000000
H    -2.084000000    -2.476000000    -3.612000000
O    -0.077000000    -1.318000000    -6.884000000
H     0.065000000    -0.934000000    -6.019000000
H    -0.582000000    -0.659000000    -7.359000000
O    -3.599000000    -0.733000000    -5.281000000
H    -2.983000000    -0.162000000    -4.821000000
H    -3.044000000    -1.328000000    -5.785000000
O    -2.676000000     2.358000000    -6.239000000
H    -3.570000000     2.679000000    -6.121000000
H    -2.342000000     2.248000000    -5.348000000
O    -4.327000000    -2.636000000    -3.407000000
H    -4.277000000    -2.244000000    -2.535000000
H    -4.386000000    -1.890000000    -4.002000000
O    -6.557000000     0.579000000    -6.230000000
H    -5.677000000     0.241000000    -6.395000000
H    -6.607000000     0.660000000    -5.277000000
O    -7.346000000     1.330000000    -3.556000000
H    -6.418000000     1.482000000    -3.375000000
H    -7.791000000     2.089000000    -3.180000000
O     1.472000000    -3.263000000    -8.343000000
H     0.766000000    -3.432000000    -8.966000000
H     1.123000000    -2.587000000    -7.762000000
O    -1.051000000    -6.680000000    -5.363000000
H    -1.618000000    -6.114000000    -4.840000000
H    -0.703000000    -6.107000000    -6.046000000
O    -3.268000000     3.405000000    -9.507000000
H    -3.585000000     2.538000000    -9.763000000
H    -2.512000000     3.228000000    -8.947000000
O    -1.200000000     6.344000000    -6.778000000
H    -1.391000000     5.897000000    -5.953000000
H    -2.055000000     6.448000000    -7.197000000
O    -2.129000000     0.289000000    -7.948000000
H    -2.167000000     0.786000000    -7.131000000
H    -2.947000000     0.504000000    -8.397000000
