215
-1478.01135
C     3.587000000    -1.621000000    -3.634000000
H     4.229000000    -2.384000000    -3.203000000
C     3.278000000    -0.364000000    -3.121000000
C     2.550000000     0.593000000    -3.887000000
H     2.361000000     1.558000000    -3.423000000
C     3.890000000     0.032000000    -1.831000000
O     4.877000000    -0.962000000    -1.301000000
H     3.035000000     0.031000000    -1.139000000
O     4.371000000     1.357000000    -1.808000000
C     4.087000000     2.129000000    -0.775000000
C     3.226000000     3.198000000    -0.999000000
H     2.925000000     3.362000000    -2.031000000
C     2.632000000     3.825000000     0.055000000
O     1.548000000     4.712000000    -0.178000000
C     3.027000000     3.555000000     1.381000000
C     2.503000000     4.348000000     2.537000000
H     3.277000000     4.401000000     3.305000000
C     1.205000000     3.726000000     3.045000000
C     1.264000000     2.747000000     4.055000000
H     2.217000000     2.452000000     4.488000000
H     2.310000000     5.395000000     2.293000000
C     3.941000000     2.526000000     1.576000000
H     4.045000000     2.218000000     2.614000000
C     4.507000000     1.780000000     0.531000000
C     5.508000000     0.685000000     0.915000000
H     6.130000000     0.891000000     1.789000000
H     6.293000000     0.604000000     0.161000000
C     4.919000000    -0.664000000     1.077000000
C     4.411000000    -1.026000000     2.339000000
H     4.620000000    -0.526000000     3.281000000
C     4.698000000    -1.483000000    -0.049000000
C     3.998000000    -2.672000000     0.028000000
H     3.806000000    -3.308000000    -0.832000000
C     3.435000000    -2.982000000     1.290000000
O     2.615000000    -4.026000000     1.256000000
C     1.261000000    -3.719000000     1.403000000
C     0.382000000    -4.470000000     0.365000000
C    -1.017000000    -4.246000000     0.330000000
H    -1.454000000    -3.767000000     1.203000000
C     0.909000000    -5.305000000    -0.656000000
H     1.988000000    -5.424000000    -0.713000000
O     0.796000000    -3.970000000     2.724000000
H     1.115000000    -2.643000000     1.226000000
C     3.672000000    -2.173000000     2.423000000
C     3.234000000    -2.598000000     3.772000000
H     3.864000000    -2.152000000     4.543000000
H     3.359000000    -3.680000000     3.853000000
C     1.808000000    -2.127000000     3.958000000
C     1.604000000    -0.918000000     4.721000000
H     2.436000000    -0.345000000     5.124000000
C     0.673000000    -2.859000000     3.484000000
C    -0.594000000    -2.346000000     3.670000000
H    -1.452000000    -2.766000000     3.152000000
C    -0.771000000    -1.113000000     4.328000000
O    -2.033000000    -0.532000000     4.496000000
C    -2.406000000     0.484000000     3.501000000
C    -3.807000000     0.245000000     3.051000000
C    -4.290000000    -1.068000000     2.995000000
H    -3.647000000    -1.893000000     3.289000000
C    -4.624000000     1.298000000     2.593000000
H    -4.215000000     2.303000000     2.648000000
O    -2.316000000     1.778000000     4.162000000
H    -1.803000000     0.420000000     2.583000000
C     0.333000000    -0.403000000     4.900000000
C     0.219000000     0.927000000     5.531000000
H     1.064000000     1.176000000     6.177000000
H    -0.667000000     0.927000000     6.169000000
C     0.105000000     2.077000000     4.499000000
C    -1.134000000     2.443000000     3.981000000
C    -1.216000000     3.462000000     3.029000000
H    -2.171000000     3.579000000     2.523000000
C    -0.072000000     4.054000000     2.503000000
O    -0.196000000     4.804000000     1.367000000
C     0.291000000     4.235000000     0.167000000
H     0.440000000     3.176000000     0.422000000
C    -0.727000000     4.454000000    -0.957000000
C    -0.331000000     4.695000000    -2.245000000
H     0.733000000     4.637000000    -2.463000000
C    -2.068000000     4.551000000    -0.633000000
H    -2.333000000     4.353000000     0.402000000
C    -3.048000000     4.830000000    -1.610000000
O    -4.344000000     5.188000000    -1.324000000
C    -2.640000000     5.012000000    -2.940000000
H    -3.309000000     5.201000000    -3.776000000
C    -1.263000000     4.933000000    -3.243000000
O    -0.903000000     4.966000000    -4.543000000
C     0.260000000     4.319000000    -4.989000000
C     0.224000000     2.958000000    -5.060000000
H    -0.539000000     2.418000000    -4.505000000
C     1.208000000     5.079000000    -5.661000000
H     0.996000000     6.145000000    -5.677000000
C     2.190000000     4.421000000    -6.370000000
H     2.810000000     5.008000000    -7.044000000
C     2.283000000     3.034000000    -6.388000000
H     3.036000000     2.461000000    -6.922000000
C     1.249000000     2.295000000    -5.748000000
O     1.120000000     0.935000000    -5.773000000
C     1.917000000     0.099000000    -5.022000000
C     2.114000000    -1.177000000    -5.472000000
H     1.661000000    -1.444000000    -6.423000000
C     2.943000000    -2.050000000    -4.804000000
O     3.255000000    -3.257000000    -5.388000000
C     3.192000000    -4.391000000    -4.621000000
C     1.967000000    -4.825000000    -4.123000000
H     1.051000000    -4.255000000    -4.257000000
C     4.305000000    -5.172000000    -4.513000000
H     5.257000000    -4.960000000    -4.994000000
C     4.275000000    -6.324000000    -3.718000000
H     5.153000000    -6.957000000    -3.618000000
C     3.079000000    -6.744000000    -3.182000000
H     2.982000000    -7.655000000    -2.597000000
C     1.896000000    -5.983000000    -3.393000000
O     0.792000000    -6.494000000    -2.808000000
C     0.172000000    -5.809000000    -1.760000000
C    -1.199000000    -5.595000000    -1.757000000
H    -1.806000000    -5.972000000    -2.577000000
C    -1.770000000    -4.863000000    -0.657000000
O    -3.134000000    -4.735000000    -0.720000000
C    -3.918000000    -4.734000000     0.403000000
C    -4.567000000    -3.610000000     0.842000000
H    -4.415000000    -2.692000000     0.280000000
C    -4.121000000    -5.998000000     1.000000000
H    -3.582000000    -6.835000000     0.564000000
C    -5.020000000    -6.114000000     2.062000000
H    -5.293000000    -7.108000000     2.408000000
C    -5.717000000    -4.967000000     2.480000000
H    -6.477000000    -5.107000000     3.244000000
C    -5.404000000    -3.671000000     1.936000000
O    -6.028000000    -2.531000000     2.422000000
C    -5.558000000    -1.313000000     2.484000000
C    -6.354000000    -0.265000000     2.037000000
H    -7.276000000    -0.462000000     1.496000000
C    -5.789000000     0.991000000     1.897000000
O    -6.613000000     2.024000000     1.476000000
C    -6.254000000     3.311000000     1.036000000
C    -7.012000000     4.343000000     1.587000000
H    -7.804000000     4.030000000     2.262000000
C    -6.748000000     5.682000000     1.279000000
H    -7.380000000     6.480000000     1.660000000
C    -5.753000000     5.950000000     0.394000000
H    -5.492000000     6.926000000    -0.006000000
C    -5.040000000     4.931000000    -0.189000000
C    -5.294000000     3.613000000     0.085000000
H    -4.813000000     2.847000000    -0.518000000
C    -1.812000000     0.804000000    -0.886000000
H    -2.699000000     1.430000000    -0.833000000
C    -0.807000000     0.993000000     0.101000000
H    -1.016000000     1.691000000     0.908000000
C     0.283000000     0.101000000     0.084000000
H     1.013000000     0.160000000     0.869000000
C     0.503000000    -0.698000000    -1.042000000
H     1.367000000    -1.354000000    -1.118000000
C    -0.438000000    -0.771000000    -2.047000000
H    -0.249000000    -1.382000000    -2.926000000
C    -1.571000000     0.010000000    -1.993000000
C    -2.625000000     0.015000000    -3.098000000
O    -2.464000000    -0.690000000    -4.102000000
O    -3.611000000     0.707000000    -3.019000000
O    -3.573000000    -3.194000000    -7.900000000
H    -3.934000000    -3.182000000    -7.013000000
H    -3.659000000    -4.105000000    -8.181000000
O    -6.072000000     0.526000000    -2.479000000
H    -6.182000000     1.392000000    -2.086000000
H    -5.125000000     0.424000000    -2.576000000
O    -0.408000000    -3.077000000    -7.683000000
H    -0.683000000    -2.258000000    -7.271000000
H    -1.013000000    -3.734000000    -7.337000000
O    -6.221000000     2.627000000    -5.089000000
H    -7.157000000     2.550000000    -5.273000000
H    -6.180000000     3.013000000    -4.214000000
O    -4.705000000    -5.461000000    -3.019000000
H    -4.117000000    -5.415000000    -2.265000000
H    -4.882000000    -6.395000000    -3.128000000
O    -1.595000000    -3.222000000    -3.671000000
H    -1.865000000    -2.353000000    -3.967000000
H    -1.852000000    -3.253000000    -2.749000000
O    -8.563000000    -1.882000000    -0.884000000
H    -8.882000000    -2.108000000    -1.758000000
H    -7.622000000    -2.057000000    -0.920000000
O    -1.114000000    -0.878000000    -6.520000000
H    -1.451000000    -0.842000000    -5.625000000
H    -0.655000000    -0.046000000    -6.638000000
O    -5.102000000    -1.273000000    -5.012000000
H    -5.660000000    -0.502000000    -4.910000000
H    -4.282000000    -1.034000000    -4.580000000
O    -3.747000000     1.458000000    -5.562000000
H    -4.553000000     1.920000000    -5.331000000
H    -3.427000000     1.103000000    -4.732000000
O    -6.081000000    -2.581000000    -1.991000000
H    -5.697000000    -3.200000000    -2.611000000
H    -5.942000000    -1.723000000    -2.392000000
O    -4.428000000    -0.152000000    -7.753000000
H    -4.112000000    -1.051000000    -7.666000000
H    -4.112000000     0.290000000    -6.965000000
O    -6.749000000     3.490000000    -2.588000000
H    -7.562000000     3.238000000    -2.150000000
H    -6.758000000     4.447000000    -2.578000000
O    -8.522000000    -0.779000000    -4.698000000
H    -9.339000000    -0.475000000    -5.094000000
H    -8.213000000    -0.032000000    -4.185000000
O    -1.500000000    -4.975000000    -5.658000000
H    -2.362000000    -5.390000000    -5.669000000
H    -1.555000000    -4.326000000    -4.957000000
O    -6.779000000    -2.970000000    -6.117000000
H    -7.446000000    -2.671000000    -5.499000000
H    -5.971000000    -2.551000000    -5.819000000
O    -7.219000000    -0.143000000    -7.635000000
H    -6.697000000     0.614000000    -7.900000000
H    -6.574000000    -0.823000000    -7.440000000
O    -2.281000000     3.734000000    -6.947000000
H    -2.944000000     3.044000000    -6.957000000
H    -2.045000000     3.827000000    -6.024000000
O    -0.423000000     2.194000000    -8.486000000
H    -0.195000000     3.040000000    -8.100000000
H    -1.285000000     1.990000000    -8.123000000
