215
-1450.07080
C     2.787000000    -0.961000000    -4.073000000
H     2.621000000    -1.878000000    -3.513000000
C     3.437000000     0.134000000    -3.477000000
C     3.565000000     1.277000000    -4.189000000
H     3.932000000     2.219000000    -3.790000000
C     3.885000000     0.180000000    -1.989000000
O     4.711000000    -0.888000000    -1.611000000
H     2.963000000     0.130000000    -1.391000000
O     4.586000000     1.318000000    -1.605000000
C     4.097000000     1.928000000    -0.447000000
C     3.193000000     2.951000000    -0.519000000
H     2.786000000     3.147000000    -1.508000000
C     2.642000000     3.534000000     0.652000000
O     1.543000000     4.367000000     0.430000000
C     3.037000000     3.056000000     1.885000000
C     2.457000000     3.645000000     3.173000000
H     3.233000000     3.597000000     3.940000000
C     1.168000000     2.973000000     3.633000000
C     1.131000000     1.965000000     4.622000000
H     2.066000000     1.621000000     5.056000000
H     2.352000000     4.732000000     3.173000000
C     4.133000000     2.177000000     1.951000000
H     4.487000000     1.834000000     2.920000000
C     4.589000000     1.575000000     0.781000000
C     5.597000000     0.455000000     0.899000000
H     6.101000000     0.567000000     1.862000000
H     6.421000000     0.505000000     0.184000000
C     4.887000000    -0.846000000     0.916000000
C     4.424000000    -1.448000000     2.086000000
H     4.614000000    -0.996000000     3.056000000
C     4.510000000    -1.435000000    -0.346000000
C     3.751000000    -2.640000000    -0.394000000
H     3.381000000    -2.992000000    -1.353000000
C     3.309000000    -3.128000000     0.801000000
O     2.475000000    -4.185000000     0.650000000
C     1.115000000    -3.929000000     0.839000000
C     0.381000000    -4.511000000    -0.290000000
C    -1.016000000    -4.240000000    -0.240000000
H    -1.503000000    -3.878000000     0.662000000
C     0.960000000    -4.984000000    -1.469000000
H     2.001000000    -5.277000000    -1.574000000
O     0.729000000    -4.351000000     2.150000000
H     1.007000000    -2.835000000     0.793000000
C     3.681000000    -2.639000000     2.054000000
C     3.123000000    -3.150000000     3.379000000
H     3.732000000    -2.683000000     4.157000000
H     3.177000000    -4.232000000     3.512000000
C     1.761000000    -2.718000000     3.707000000
C     1.545000000    -1.728000000     4.637000000
H     2.402000000    -1.299000000     5.151000000
C     0.621000000    -3.392000000     3.124000000
C    -0.667000000    -3.017000000     3.465000000
H    -1.532000000    -3.621000000     3.205000000
C    -0.894000000    -1.987000000     4.318000000
O    -2.185000000    -1.480000000     4.515000000
C    -2.486000000    -0.325000000     3.719000000
C    -3.890000000    -0.348000000     3.162000000
C    -4.484000000    -1.544000000     2.895000000
H    -4.019000000    -2.476000000     3.205000000
C    -4.681000000     0.834000000     2.898000000
H    -4.191000000     1.762000000     3.180000000
O    -2.374000000     0.913000000     4.531000000
H    -1.743000000    -0.167000000     2.924000000
C     0.215000000    -1.327000000     4.906000000
C     0.007000000    -0.049000000     5.773000000
H     0.774000000     0.008000000     6.549000000
H    -0.957000000    -0.119000000     6.282000000
C    -0.004000000     1.151000000     4.800000000
C    -1.214000000     1.672000000     4.310000000
C    -1.192000000     2.787000000     3.464000000
H    -2.128000000     2.979000000     2.945000000
C    -0.060000000     3.411000000     3.061000000
O    -0.159000000     4.271000000     2.035000000
C     0.188000000     3.872000000     0.680000000
H     0.223000000     2.774000000     0.734000000
C    -0.732000000     4.335000000    -0.339000000
C    -0.289000000     4.478000000    -1.658000000
H     0.719000000     4.199000000    -1.952000000
C    -2.040000000     4.674000000    -0.005000000
H    -2.284000000     4.678000000     1.054000000
C    -2.948000000     5.008000000    -1.001000000
O    -4.192000000     5.393000000    -0.601000000
C    -2.584000000     5.040000000    -2.343000000
H    -3.295000000     5.176000000    -3.154000000
C    -1.260000000     4.695000000    -2.667000000
O    -0.957000000     4.433000000    -3.973000000
C     0.335000000     4.598000000    -4.440000000
C     1.037000000     3.575000000    -4.935000000
H     0.629000000     2.567000000    -4.947000000
C     0.854000000     5.885000000    -4.410000000
H     0.231000000     6.648000000    -3.949000000
C     2.150000000     6.137000000    -4.971000000
H     2.644000000     7.103000000    -5.028000000
C     2.843000000     5.053000000    -5.539000000
H     3.894000000     5.114000000    -5.810000000
C     2.300000000     3.739000000    -5.469000000
O     2.929000000     2.673000000    -6.025000000
C     2.966000000     1.411000000    -5.456000000
C     2.408000000     0.325000000    -6.024000000
H     2.091000000     0.506000000    -7.048000000
C     2.296000000    -0.905000000    -5.344000000
O     1.784000000    -2.045000000    -6.001000000
C     2.133000000    -3.351000000    -5.680000000
C     1.248000000    -4.083000000    -4.801000000
H     0.321000000    -3.676000000    -4.405000000
C     3.229000000    -4.004000000    -6.203000000
H     3.947000000    -3.503000000    -6.848000000
C     3.520000000    -5.326000000    -5.893000000
H     4.387000000    -5.876000000    -6.249000000
C     2.673000000    -6.054000000    -5.049000000
H     2.770000000    -7.081000000    -4.705000000
C     1.618000000    -5.383000000    -4.456000000
O     0.739000000    -6.005000000    -3.638000000
C     0.109000000    -5.370000000    -2.544000000
C    -1.292000000    -5.172000000    -2.477000000
H    -1.982000000    -5.386000000    -3.289000000
C    -1.838000000    -4.601000000    -1.299000000
O    -3.208000000    -4.462000000    -1.327000000
C    -3.984000000    -4.687000000    -0.256000000
C    -4.719000000    -3.658000000     0.356000000
H    -4.495000000    -2.646000000     0.028000000
C    -4.128000000    -5.979000000     0.287000000
H    -3.706000000    -6.885000000    -0.140000000
C    -5.084000000    -6.251000000     1.315000000
H    -5.218000000    -7.268000000     1.676000000
C    -5.821000000    -5.211000000     1.773000000
H    -6.502000000    -5.522000000     2.561000000
C    -5.659000000    -3.895000000     1.295000000
O    -6.361000000    -2.892000000     1.948000000
C    -5.733000000    -1.633000000     2.295000000
C    -6.439000000    -0.439000000     2.045000000
H    -7.404000000    -0.466000000     1.545000000
C    -5.891000000     0.771000000     2.304000000
O    -6.419000000     1.962000000     1.893000000
C    -5.797000000     3.239000000     1.857000000
C    -5.971000000     4.106000000     2.907000000
H    -6.342000000     3.685000000     3.838000000
C    -5.443000000     5.404000000     2.819000000
H    -5.533000000     6.076000000     3.668000000
C    -4.816000000     5.839000000     1.660000000
H    -4.520000000     6.884000000     1.630000000
C    -4.645000000     4.983000000     0.595000000
C    -5.152000000     3.654000000     0.684000000
H    -5.237000000     3.070000000    -0.230000000
C    -1.501000000    -0.036000000    -0.134000000
H    -2.237000000     0.589000000     0.366000000
C    -0.231000000     0.029000000     0.390000000
H    -0.029000000     0.507000000     1.345000000
C     0.834000000    -0.674000000    -0.187000000
H     1.803000000    -0.716000000     0.202000000
C     0.509000000    -1.383000000    -1.348000000
H     1.224000000    -1.962000000    -1.926000000
C    -0.747000000    -1.337000000    -1.929000000
H    -0.989000000    -2.032000000    -2.728000000
C    -1.843000000    -0.675000000    -1.373000000
C    -3.162000000    -0.592000000    -2.096000000
O    -3.247000000    -1.092000000    -3.218000000
O    -4.051000000     0.158000000    -1.658000000
O    -4.607000000    -5.011000000    -6.889000000
H    -4.793000000    -4.814000000    -5.971000000
H    -5.300000000    -4.563000000    -7.375000000
O    -8.045000000    -4.211000000    -3.486000000
H    -8.550000000    -4.996000000    -3.273000000
H    -8.263000000    -4.027000000    -4.400000000
O    -6.706000000    -0.466000000    -1.860000000
H    -6.942000000     0.461000000    -1.816000000
H    -5.815000000    -0.502000000    -1.511000000
O    -2.860000000     4.373000000    -5.911000000
H    -2.208000000     4.232000000    -5.224000000
H    -3.103000000     3.493000000    -6.196000000
O    -2.532000000    -3.086000000    -4.969000000
H    -2.574000000    -2.465000000    -4.242000000
H    -3.162000000    -3.768000000    -4.738000000
O    -0.911000000     0.663000000    -5.150000000
H    -0.363000000    -0.071000000    -4.872000000
H    -1.787000000     0.441000000    -4.834000000
O    -5.615000000    -0.786000000    -4.401000000
H    -6.023000000    -0.564000000    -3.565000000
H    -4.686000000    -0.894000000    -4.193000000
O    -5.230000000     2.221000000    -3.065000000
H    -5.055000000     1.940000000    -3.963000000
H    -4.675000000     1.658000000    -2.525000000
O    -5.061000000    -4.571000000    -4.287000000
H    -4.588000000    -4.930000000    -3.536000000
H    -5.968000000    -4.504000000    -3.989000000
O    -5.552000000    -2.333000000    -8.300000000
H    -6.398000000    -2.712000000    -8.537000000
H    -5.764000000    -1.653000000    -7.661000000
O    -7.311000000     4.000000000    -2.664000000
H    -6.490000000     3.532000000    -2.512000000
H    -7.594000000     3.711000000    -3.532000000
O    -8.704000000     3.080000000    -0.028000000
H    -8.920000000     3.397000000    -0.905000000
H    -8.067000000     2.381000000    -0.176000000
O    -7.677000000    -3.053000000    -1.190000000
H    -7.791000000    -3.358000000    -2.090000000
H    -7.287000000    -2.183000000    -1.279000000
O    -8.790000000    -0.969000000    -4.362000000
H    -7.896000000    -1.280000000    -4.217000000
H    -8.750000000    -0.031000000    -4.174000000
O    -0.877000000    -3.243000000    -7.143000000
H    -0.276000000    -2.561000000    -6.842000000
H    -1.627000000    -3.178000000    -6.552000000
O    -6.606000000    -0.402000000    -6.795000000
H    -6.415000000    -0.594000000    -5.877000000
H    -7.561000000    -0.345000000    -6.834000000
O    -8.833000000     1.344000000    -2.475000000
H    -9.310000000     0.726000000    -1.921000000
H    -9.515000000     1.885000000    -2.873000000
O    -4.357000000     1.994000000    -6.610000000
H    -4.893000000     1.342000000    -6.158000000
H    -4.035000000     1.542000000    -7.389000000
O    -1.197000000     1.757000000    -7.560000000
H    -1.191000000     1.183000000    -6.794000000
H    -0.764000000     1.248000000    -8.245000000
