215
-1473.09871
C     4.348000000    -0.308000000    -3.751000000
H     4.604000000    -1.134000000    -3.092000000
C     4.069000000     0.969000000    -3.189000000
C     3.693000000     2.044000000    -3.983000000
H     3.612000000     3.005000000    -3.481000000
C     4.164000000     1.161000000    -1.719000000
O     5.213000000     0.321000000    -1.174000000
H     3.172000000     0.903000000    -1.320000000
O     4.335000000     2.549000000    -1.278000000
C     3.579000000     3.078000000    -0.205000000
C     2.512000000     3.952000000    -0.358000000
H     2.276000000     4.350000000    -1.341000000
C     1.656000000     4.269000000     0.698000000
O     0.494000000     4.967000000     0.432000000
C     1.967000000     3.751000000     1.953000000
C     1.220000000     4.236000000     3.222000000
H     1.916000000     4.237000000     4.063000000
C     0.025000000     3.339000000     3.567000000
C     0.319000000     2.332000000     4.410000000
H     1.283000000     2.115000000     4.863000000
H     1.004000000     5.263000000     2.920000000
C     3.084000000     2.929000000     2.207000000
H     3.356000000     2.539000000     3.184000000
C     3.920000000     2.623000000     1.129000000
C     5.119000000     1.827000000     1.351000000
H     5.662000000     1.971000000     2.288000000
H     5.862000000     2.107000000     0.601000000
C     4.901000000     0.330000000     1.293000000
C     4.394000000    -0.311000000     2.405000000
H     4.431000000     0.183000000     3.373000000
C     4.872000000    -0.320000000     0.062000000
C     4.279000000    -1.613000000    -0.090000000
H     4.188000000    -2.046000000    -1.083000000
C     3.815000000    -2.257000000     1.069000000
O     3.092000000    -3.430000000     0.853000000
C     1.665000000    -3.346000000     0.784000000
C     1.052000000    -4.081000000    -0.358000000
C    -0.317000000    -4.291000000    -0.351000000
H    -0.919000000    -4.081000000     0.529000000
C     1.742000000    -4.237000000    -1.586000000
H     2.796000000    -3.985000000    -1.677000000
O     1.258000000    -3.877000000     2.091000000
H     1.471000000    -2.264000000     0.751000000
C     3.911000000    -1.624000000     2.297000000
C     3.410000000    -2.310000000     3.552000000
H     3.986000000    -1.943000000     4.404000000
H     3.750000000    -3.344000000     3.630000000
C     1.929000000    -2.064000000     3.656000000
C     1.492000000    -1.023000000     4.494000000
H     2.277000000    -0.391000000     4.901000000
C     0.972000000    -2.940000000     3.086000000
C    -0.383000000    -2.878000000     3.432000000
H    -1.119000000    -3.605000000     3.101000000
C    -0.826000000    -1.873000000     4.227000000
O    -2.165000000    -1.607000000     4.344000000
C    -2.800000000    -0.628000000     3.507000000
C    -4.174000000    -1.132000000     3.124000000
C    -4.418000000    -2.440000000     2.701000000
H    -3.682000000    -3.208000000     2.927000000
C    -5.170000000    -0.152000000     2.894000000
H    -4.970000000     0.899000000     3.087000000
O    -2.882000000     0.604000000     4.301000000
H    -2.107000000    -0.361000000     2.696000000
C     0.099000000    -0.910000000     4.791000000
C    -0.370000000     0.266000000     5.576000000
H     0.418000000     0.608000000     6.250000000
H    -1.163000000    -0.198000000     6.167000000
C    -0.681000000     1.427000000     4.764000000
C    -1.949000000     1.573000000     4.190000000
C    -2.257000000     2.649000000     3.319000000
H    -3.219000000     2.770000000     2.827000000
C    -1.237000000     3.531000000     2.982000000
O    -1.381000000     4.449000000     1.912000000
C    -0.698000000     4.198000000     0.687000000
H    -0.395000000     3.150000000     0.822000000
C    -1.666000000     4.042000000    -0.499000000
C    -1.129000000     4.015000000    -1.775000000
H    -0.060000000     4.092000000    -1.955000000
C    -3.033000000     3.792000000    -0.338000000
H    -3.508000000     3.827000000     0.639000000
C    -3.747000000     3.217000000    -1.386000000
O    -5.029000000     2.959000000    -1.322000000
C    -3.250000000     3.182000000    -2.663000000
H    -3.939000000     2.820000000    -3.422000000
C    -1.949000000     3.608000000    -2.874000000
O    -1.451000000     3.494000000    -4.123000000
C    -0.202000000     4.062000000    -4.564000000
C     0.762000000     3.210000000    -4.993000000
H     0.655000000     2.147000000    -5.195000000
C    -0.050000000     5.415000000    -4.544000000
H    -0.876000000     6.039000000    -4.212000000
C     1.069000000     5.981000000    -5.092000000
H     1.195000000     7.053000000    -4.962000000
C     2.144000000     5.187000000    -5.448000000
H     3.090000000     5.511000000    -5.874000000
C     1.981000000     3.806000000    -5.454000000
O     2.932000000     2.949000000    -6.021000000
C     3.454000000     1.882000000    -5.300000000
C     3.877000000     0.686000000    -5.925000000
H     3.821000000     0.645000000    -7.010000000
C     4.249000000    -0.444000000    -5.139000000
O     4.526000000    -1.644000000    -5.807000000
C     4.360000000    -2.817000000    -5.127000000
C     3.076000000    -3.303000000    -4.871000000
H     2.161000000    -2.851000000    -5.246000000
C     5.417000000    -3.537000000    -4.653000000
H     6.394000000    -3.065000000    -4.725000000
C     5.313000000    -4.697000000    -3.977000000
H     6.200000000    -5.211000000    -3.616000000
C     4.065000000    -5.199000000    -3.860000000
H     3.875000000    -6.127000000    -3.326000000
C     2.902000000    -4.544000000    -4.259000000
O     1.708000000    -5.070000000    -3.875000000
C     1.099000000    -4.898000000    -2.670000000
C    -0.287000000    -5.227000000    -2.546000000
H    -0.781000000    -5.570000000    -3.452000000
C    -0.953000000    -4.951000000    -1.333000000
O    -2.265000000    -4.989000000    -1.371000000
C    -3.102000000    -5.424000000    -0.324000000
C    -4.072000000    -4.551000000     0.153000000
H    -4.235000000    -3.641000000    -0.419000000
C    -2.888000000    -6.655000000     0.299000000
H    -2.146000000    -7.347000000    -0.089000000
C    -3.677000000    -7.057000000     1.370000000
H    -3.623000000    -8.073000000     1.754000000
C    -4.653000000    -6.240000000     1.827000000
H    -5.235000000    -6.645000000     2.651000000
C    -4.853000000    -4.970000000     1.226000000
O    -5.850000000    -4.122000000     1.748000000
C    -5.592000000    -2.776000000     2.089000000
C    -6.629000000    -1.793000000     1.938000000
H    -7.518000000    -2.166000000     1.437000000
C    -6.400000000    -0.520000000     2.282000000
O    -7.317000000     0.440000000     1.939000000
C    -6.968000000     1.662000000     1.457000000
C    -7.582000000     2.796000000     1.913000000
H    -8.253000000     2.666000000     2.757000000
C    -7.269000000     4.044000000     1.350000000
H    -7.741000000     4.930000000     1.765000000
C    -6.377000000     4.132000000     0.300000000
H    -6.182000000     5.037000000    -0.271000000
C    -5.743000000     2.975000000    -0.107000000
C    -6.010000000     1.703000000     0.452000000
H    -5.688000000     0.814000000    -0.085000000
C    -2.138000000     0.038000000    -0.710000000
H    -3.219000000     0.125000000    -0.627000000
C    -1.348000000     0.652000000     0.287000000
H    -1.879000000     1.087000000     1.130000000
C     0.053000000     0.624000000     0.209000000
H     0.702000000     1.016000000     0.984000000
C     0.642000000    -0.177000000    -0.796000000
H     1.711000000    -0.342000000    -0.905000000
C    -0.206000000    -0.928000000    -1.674000000
H     0.256000000    -1.525000000    -2.456000000
C    -1.608000000    -0.821000000    -1.618000000
C    -2.473000000    -1.604000000    -2.511000000
O    -2.073000000    -1.930000000    -3.649000000
O    -3.616000000    -1.814000000    -2.098000000
O    -6.502000000    -4.951000000    -3.910000000
H    -7.251000000    -4.387000000    -4.103000000
H    -5.891000000    -4.385000000    -3.438000000
O    -6.496000000    -1.762000000    -1.292000000
H    -5.720000000    -1.544000000    -0.777000000
H    -6.181000000    -1.800000000    -2.195000000
O    -0.072000000    -4.454000000    -7.650000000
H    -0.513000000    -4.941000000    -6.954000000
H    -0.007000000    -3.560000000    -7.313000000
O    -6.717000000     1.472000000    -4.119000000
H    -6.436000000     0.679000000    -3.664000000
H    -6.096000000     1.567000000    -4.841000000
O    -4.402000000    -2.251000000    -8.560000000
H    -3.934000000    -2.200000000    -7.727000000
H    -4.557000000    -1.338000000    -8.804000000
O    -5.178000000     1.488000000    -6.451000000
H    -4.285000000     1.180000000    -6.606000000
H    -5.722000000     0.942000000    -7.019000000
O    -4.327000000    -6.417000000    -5.318000000
H    -4.568000000    -5.886000000    -4.559000000
H    -5.000000000    -6.222000000    -5.970000000
O    -8.875000000    -5.470000000    -2.333000000
H    -7.978000000    -5.326000000    -2.636000000
H    -8.785000000    -5.647000000    -1.396000000
O    -1.729000000    -6.388000000    -5.950000000
H    -2.673000000    -6.384000000    -5.791000000
H    -1.451000000    -7.273000000    -5.713000000
O    -1.203000000     0.238000000    -4.713000000
H    -0.799000000     0.563000000    -3.908000000
H    -1.501000000    -0.645000000    -4.491000000
O    -2.034000000     1.329000000    -7.280000000
H    -1.976000000     1.041000000    -6.368000000
H    -1.185000000     1.099000000    -7.658000000
O    -5.623000000    -1.462000000    -3.865000000
H    -5.387000000    -1.715000000    -4.757000000
H    -4.814000000    -1.568000000    -3.364000000
O    -0.331000000    -2.352000000    -5.692000000
H    -0.483000000    -1.441000000    -5.943000000
H    -0.861000000    -2.475000000    -4.905000000
O    -4.178000000    -4.255000000    -3.067000000
H    -3.654000000    -4.973000000    -2.713000000
H    -3.860000000    -3.477000000    -2.609000000
O    -9.041000000    -2.785000000    -1.076000000
H    -8.976000000    -3.501000000    -1.707000000
H    -8.168000000    -2.394000000    -1.066000000
O    -3.094000000    -7.613000000    -2.912000000
H    -4.014000000    -7.435000000    -2.713000000
H    -3.064000000    -7.681000000    -3.866000000
O    -3.494000000    -2.541000000    -6.031000000
H    -2.967000000    -2.399000000    -5.244000000
H    -3.687000000    -3.478000000    -6.024000000
O    -8.473000000    -3.203000000    -4.274000000
H    -9.363000000    -2.890000000    -4.434000000
H    -7.995000000    -2.425000000    -3.986000000
O    -5.925000000    -7.349000000    -2.351000000
H    -6.482000000    -6.725000000    -2.817000000
H    -6.094000000    -7.176000000    -1.425000000
