215
-1452.47056
C     4.148000000     0.629000000    -3.774000000
H     4.683000000    -0.230000000    -3.380000000
C     3.693000000     1.689000000    -2.973000000
C     2.937000000     2.705000000    -3.531000000
H     2.572000000     3.510000000    -2.899000000
C     3.903000000     1.540000000    -1.461000000
O     4.944000000     0.622000000    -1.204000000
H     2.897000000     1.260000000    -1.115000000
O     4.188000000     2.843000000    -0.943000000
C     3.568000000     3.272000000     0.194000000
C     2.450000000     4.102000000     0.203000000
H     2.159000000     4.652000000    -0.688000000
C     1.631000000     4.191000000     1.342000000
O     0.329000000     4.653000000     1.172000000
C     2.019000000     3.559000000     2.517000000
C     1.207000000     3.577000000     3.758000000
H     1.844000000     3.550000000     4.644000000
C     0.015000000     2.618000000     3.871000000
C     0.277000000     1.519000000     4.670000000
H     1.188000000     1.422000000     5.255000000
H     0.796000000     4.586000000     3.833000000
C     3.261000000     2.945000000     2.561000000
H     3.531000000     2.493000000     3.512000000
C     3.934000000     2.640000000     1.421000000
C     5.155000000     1.774000000     1.479000000
H     5.685000000     1.895000000     2.426000000
H     5.903000000     2.093000000     0.750000000
C     4.716000000     0.319000000     1.231000000
C     4.398000000    -0.577000000     2.309000000
H     4.531000000    -0.270000000     3.344000000
C     4.721000000    -0.221000000    -0.066000000
C     4.166000000    -1.496000000    -0.301000000
H     3.996000000    -1.768000000    -1.339000000
C     3.648000000    -2.271000000     0.762000000
O     3.114000000    -3.473000000     0.404000000
C     1.660000000    -3.453000000     0.442000000
C     1.039000000    -3.969000000    -0.896000000
C    -0.281000000    -4.385000000    -0.959000000
H    -0.872000000    -4.401000000    -0.047000000
C     1.812000000    -4.075000000    -2.040000000
H     2.895000000    -4.032000000    -1.962000000
O     1.225000000    -4.201000000     1.597000000
H     1.308000000    -2.425000000     0.615000000
C     3.913000000    -1.878000000     2.061000000
C     3.426000000    -2.855000000     3.132000000
H     4.075000000    -2.643000000     3.984000000
H     3.683000000    -3.869000000     2.816000000
C     1.922000000    -2.774000000     3.466000000
C     1.451000000    -1.900000000     4.494000000
H     2.214000000    -1.408000000     5.092000000
C     0.962000000    -3.530000000     2.782000000
C    -0.388000000    -3.451000000     3.098000000
H    -1.064000000    -4.030000000     2.474000000
C    -0.784000000    -2.658000000     4.142000000
O    -2.186000000    -2.496000000     4.371000000
C    -2.734000000    -1.355000000     3.562000000
C    -4.111000000    -1.793000000     2.969000000
C    -4.308000000    -3.131000000     2.506000000
H    -3.509000000    -3.848000000     2.672000000
C    -4.993000000    -0.793000000     2.613000000
H    -4.875000000     0.221000000     2.988000000
O    -3.002000000    -0.208000000     4.408000000
H    -2.045000000    -1.143000000     2.731000000
C     0.100000000    -1.808000000     4.812000000
C    -0.450000000    -0.721000000     5.748000000
H     0.293000000    -0.548000000     6.529000000
H    -1.315000000    -1.043000000     6.331000000
C    -0.729000000     0.557000000     4.891000000
C    -2.028000000     0.775000000     4.397000000
C    -2.246000000     1.851000000     3.541000000
H    -3.166000000     1.816000000     2.963000000
C    -1.244000000     2.780000000     3.239000000
O    -1.486000000     3.697000000     2.271000000
C    -0.685000000     3.621000000     1.074000000
H    -0.295000000     2.593000000     1.049000000
C    -1.665000000     3.906000000    -0.095000000
C    -1.278000000     4.718000000    -1.146000000
H    -0.313000000     5.214000000    -1.207000000
C    -2.837000000     3.158000000    -0.105000000
H    -3.064000000     2.493000000     0.724000000
C    -3.783000000     3.508000000    -1.159000000
O    -4.977000000     2.804000000    -1.228000000
C    -3.361000000     4.286000000    -2.208000000
H    -3.970000000     4.414000000    -3.099000000
C    -2.160000000     4.942000000    -2.265000000
O    -1.827000000     5.781000000    -3.266000000
C    -0.486000000     5.831000000    -3.707000000
C    -0.109000000     4.769000000    -4.509000000
H    -0.826000000     3.981000000    -4.724000000
C     0.330000000     6.915000000    -3.456000000
H     0.028000000     7.736000000    -2.811000000
C     1.639000000     6.884000000    -3.897000000
H     2.337000000     7.706000000    -3.763000000
C     2.026000000     5.776000000    -4.703000000
H     3.085000000     5.731000000    -4.942000000
C     1.205000000     4.618000000    -4.843000000
O     1.625000000     3.472000000    -5.417000000
C     2.548000000     2.643000000    -4.889000000
C     2.942000000     1.524000000    -5.620000000
H     2.692000000     1.593000000    -6.676000000
C     3.853000000     0.593000000    -5.106000000
O     4.264000000    -0.483000000    -5.854000000
C     4.308000000    -1.789000000    -5.384000000
C     3.118000000    -2.463000000    -5.152000000
H     2.139000000    -2.027000000    -5.331000000
C     5.560000000    -2.374000000    -5.153000000
H     6.513000000    -1.868000000    -5.287000000
C     5.581000000    -3.656000000    -4.657000000
H     6.539000000    -4.142000000    -4.496000000
C     4.413000000    -4.372000000    -4.474000000
H     4.320000000    -5.397000000    -4.124000000
C     3.159000000    -3.732000000    -4.625000000
O     2.036000000    -4.459000000    -4.476000000
C     1.274000000    -4.406000000    -3.310000000
C    -0.111000000    -4.688000000    -3.348000000
H    -0.538000000    -4.951000000    -4.313000000
C    -0.781000000    -4.754000000    -2.157000000
O    -2.076000000    -5.079000000    -2.279000000
C    -2.800000000    -5.532000000    -1.172000000
C    -3.888000000    -4.803000000    -0.588000000
H    -4.119000000    -3.776000000    -0.859000000
C    -2.544000000    -6.817000000    -0.703000000
H    -1.851000000    -7.446000000    -1.255000000
C    -3.228000000    -7.400000000     0.353000000
H    -3.037000000    -8.434000000     0.630000000
C    -4.241000000    -6.613000000     0.974000000
H    -4.814000000    -7.008000000     1.809000000
C    -4.517000000    -5.355000000     0.524000000
O    -5.516000000    -4.691000000     1.112000000
C    -5.469000000    -3.471000000     1.769000000
C    -6.485000000    -2.502000000     1.585000000
H    -7.396000000    -2.678000000     1.019000000
C    -6.208000000    -1.144000000     1.935000000
O    -7.088000000    -0.145000000     1.796000000
C    -6.747000000     1.131000000     1.448000000
C    -7.099000000     2.231000000     2.316000000
H    -7.666000000     2.003000000     3.215000000
C    -6.945000000     3.512000000     1.760000000
H    -7.359000000     4.356000000     2.306000000
C    -6.198000000     3.710000000     0.594000000
H    -6.054000000     4.664000000     0.093000000
C    -5.725000000     2.594000000    -0.097000000
C    -6.000000000     1.328000000     0.307000000
H    -5.703000000     0.474000000    -0.297000000
C    -2.755000000    -0.836000000    -1.410000000
H    -3.813000000    -0.725000000    -1.190000000
C    -1.837000000    -0.293000000    -0.494000000
H    -2.208000000     0.102000000     0.448000000
C    -0.465000000    -0.317000000    -0.726000000
H     0.261000000     0.087000000     0.004000000
C    -0.007000000    -0.862000000    -1.953000000
H     1.070000000    -0.843000000    -2.092000000
C    -0.895000000    -1.484000000    -2.856000000
H    -0.529000000    -1.864000000    -3.806000000
C    -2.307000000    -1.465000000    -2.607000000
C    -3.303000000    -2.316000000    -3.466000000
O    -2.912000000    -2.725000000    -4.578000000
O    -4.484000000    -2.319000000    -3.177000000
O    -6.931000000    -2.752000000    -1.942000000
H    -7.398000000    -2.668000000    -2.773000000
H    -6.054000000    -2.415000000    -2.124000000
O    -6.209000000    -7.593000000    -3.897000000
H    -6.759000000    -8.176000000    -3.373000000
H    -6.396000000    -6.718000000    -3.557000000
O    -4.638000000    -0.210000000    -5.160000000
H    -5.135000000     0.390000000    -4.604000000
H    -4.305000000    -0.875000000    -4.558000000
O    -5.734000000     1.960000000    -3.759000000
H    -5.924000000     2.860000000    -4.025000000
H    -5.450000000     2.035000000    -2.848000000
O    -5.650000000    -2.381000000    -7.156000000
H    -5.164000000    -2.456000000    -6.334000000
H    -5.216000000    -1.668000000    -7.626000000
O    -7.478000000     1.367000000    -6.132000000
H    -7.313000000     1.963000000    -6.862000000
H    -6.608000000     1.081000000    -5.854000000
O    -2.910000000    -1.527000000    -8.678000000
H    -2.785000000    -0.704000000    -8.205000000
H    -2.612000000    -2.201000000    -8.068000000
O    -5.882000000    -5.611000000    -7.253000000
H    -5.957000000    -4.868000000    -6.655000000
H    -5.382000000    -5.271000000    -7.995000000
O    -8.303000000    -2.253000000    -4.383000000
H    -7.858000000    -1.984000000    -5.187000000
H    -9.157000000    -1.823000000    -4.427000000
O    -1.858000000     1.644000000    -3.410000000
H    -1.517000000     1.238000000    -2.613000000
H    -1.837000000     0.944000000    -4.062000000
O    -3.332000000     2.813000000    -5.275000000
H    -2.796000000     2.437000000    -4.576000000
H    -4.223000000     2.527000000    -5.073000000
O    -5.738000000    -4.143000000    -4.668000000
H    -6.150000000    -4.641000000    -3.963000000
H    -5.112000000    -3.571000000    -4.224000000
O     0.041000000    -1.178000000    -6.699000000
H    -0.314000000    -0.436000000    -6.211000000
H    -0.688000000    -1.794000000    -6.763000000
O    -3.159000000    -6.158000000    -4.628000000
H    -3.079000000    -5.258000000    -4.945000000
H    -3.228000000    -6.071000000    -3.677000000
O    -3.898000000    -5.002000000    -9.178000000
H    -3.404000000    -5.284000000    -9.948000000
H    -3.475000000    -4.188000000    -8.907000000
O    -1.739000000    -3.321000000    -7.049000000
H    -2.143000000    -3.201000000    -6.190000000
H    -1.059000000    -3.979000000    -6.904000000
O    -2.494000000    -7.514000000    -6.938000000
H    -2.832000000    -7.409000000    -6.048000000
H    -2.146000000    -6.652000000    -7.166000000
O    -1.993000000    -0.007000000    -5.668000000
H    -2.238000000     0.595000000    -6.371000000
H    -2.816000000    -0.425000000    -5.413000000
O    -6.415000000    -5.409000000    -2.388000000
H    -6.282000000    -4.493000000    -2.147000000
H    -6.948000000    -5.769000000    -1.679000000
