215
-1444.39373
C     2.947000000     0.920000000    -4.199000000
H     3.328000000    -0.043000000    -3.867000000
C     3.019000000     2.056000000    -3.394000000
C     2.418000000     3.237000000    -3.902000000
H     2.433000000     4.184000000    -3.367000000
C     3.431000000     2.006000000    -1.850000000
O     4.530000000     1.099000000    -1.667000000
H     2.622000000     1.640000000    -1.200000000
O     3.789000000     3.326000000    -1.479000000
C     3.326000000     3.589000000    -0.207000000
C     2.065000000     4.267000000    -0.116000000
H     1.641000000     4.629000000    -1.050000000
C     1.374000000     4.381000000     1.098000000
O     0.058000000     4.697000000     1.177000000
C     1.931000000     3.934000000     2.276000000
C     1.178000000     4.100000000     3.624000000
H     1.923000000     4.061000000     4.421000000
C     0.274000000     2.949000000     3.928000000
C     0.744000000     1.823000000     4.590000000
H     1.774000000     1.660000000     4.897000000
H     0.735000000     5.095000000     3.703000000
C     3.121000000     3.176000000     2.232000000
H     3.596000000     2.724000000     3.099000000
C     3.833000000     3.043000000     1.004000000
C     5.070000000     2.042000000     0.989000000
H     5.655000000     2.162000000     1.903000000
H     5.832000000     2.319000000     0.257000000
C     4.709000000     0.612000000     0.677000000
C     4.681000000    -0.318000000     1.770000000
H     4.838000000    -0.084000000     2.820000000
C     4.473000000     0.200000000    -0.595000000
C     4.104000000    -1.092000000    -0.841000000
H     3.960000000    -1.420000000    -1.867000000
C     4.015000000    -2.022000000     0.145000000
O     3.473000000    -3.270000000    -0.138000000
C     2.068000000    -3.553000000     0.186000000
C     1.341000000    -4.137000000    -0.999000000
C     0.228000000    -4.940000000    -0.755000000
H    -0.060000000    -5.229000000     0.252000000
C     1.725000000    -3.797000000    -2.303000000
H     2.554000000    -3.108000000    -2.444000000
O     1.814000000    -4.266000000     1.434000000
H     1.646000000    -2.554000000     0.373000000
C     4.306000000    -1.650000000     1.483000000
C     4.049000000    -2.608000000     2.667000000
H     4.695000000    -2.331000000     3.502000000
H     4.215000000    -3.624000000     2.302000000
C     2.568000000    -2.623000000     3.105000000
C     2.216000000    -1.669000000     4.067000000
H     2.980000000    -0.980000000     4.416000000
C     1.582000000    -3.404000000     2.516000000
C     0.278000000    -3.390000000     2.980000000
H    -0.472000000    -3.969000000     2.447000000
C    -0.043000000    -2.490000000     4.016000000
O    -1.384000000    -2.445000000     4.334000000
C    -2.135000000    -1.405000000     3.680000000
C    -3.391000000    -1.993000000     3.185000000
C    -3.417000000    -3.332000000     2.742000000
H    -2.542000000    -3.958000000     2.894000000
C    -4.519000000    -1.242000000     3.182000000
H    -4.569000000    -0.250000000     3.623000000
O    -2.225000000    -0.339000000     4.729000000
H    -1.583000000    -1.009000000     2.815000000
C     0.929000000    -1.621000000     4.561000000
C     0.472000000    -0.565000000     5.548000000
H     1.438000000    -0.291000000     5.979000000
H    -0.166000000    -0.911000000     6.364000000
C    -0.084000000     0.718000000     4.898000000
C    -1.415000000     0.761000000     4.556000000
C    -1.904000000     1.819000000     3.796000000
H    -2.864000000     1.840000000     3.286000000
C    -1.070000000     2.911000000     3.475000000
O    -1.634000000     3.674000000     2.495000000
C    -0.953000000     3.692000000     1.215000000
H    -0.372000000     2.761000000     1.137000000
C    -1.963000000     3.779000000     0.096000000
C    -1.754000000     4.567000000    -1.042000000
H    -0.818000000     5.106000000    -1.163000000
C    -3.181000000     2.961000000     0.168000000
H    -3.232000000     2.237000000     0.977000000
C    -4.045000000     2.813000000    -0.924000000
O    -5.278000000     2.132000000    -0.760000000
C    -3.831000000     3.671000000    -2.021000000
H    -4.430000000     3.673000000    -2.928000000
C    -2.716000000     4.564000000    -1.999000000
O    -2.553000000     5.308000000    -3.100000000
C    -1.308000000     5.732000000    -3.469000000
C    -0.594000000     5.002000000    -4.402000000
H    -0.958000000     4.043000000    -4.762000000
C    -0.765000000     6.918000000    -3.003000000
H    -1.322000000     7.537000000    -2.306000000
C     0.453000000     7.436000000    -3.458000000
H     0.992000000     8.270000000    -3.015000000
C     1.172000000     6.636000000    -4.382000000
H     2.200000000     6.798000000    -4.698000000
C     0.682000000     5.376000000    -4.819000000
O     1.408000000     4.509000000    -5.682000000
C     1.828000000     3.296000000    -5.148000000
C     1.832000000     2.201000000    -5.985000000
H     1.385000000     2.167000000    -6.976000000
C     2.386000000     0.985000000    -5.500000000
O     2.105000000    -0.183000000    -6.277000000
C     2.699000000    -1.392000000    -6.084000000
C     1.995000000    -2.361000000    -5.360000000
H     0.925000000    -2.285000000    -5.182000000
C     4.000000000    -1.613000000    -6.364000000
H     4.530000000    -0.819000000    -6.883000000
C     4.673000000    -2.806000000    -5.990000000
H     5.690000000    -3.004000000    -6.320000000
C     3.941000000    -3.787000000    -5.357000000
H     4.397000000    -4.752000000    -5.152000000
C     2.627000000    -3.548000000    -5.084000000
O     1.853000000    -4.601000000    -4.554000000
C     1.154000000    -4.474000000    -3.389000000
C     0.108000000    -5.351000000    -3.142000000
H    -0.234000000    -5.873000000    -4.033000000
C    -0.384000000    -5.416000000    -1.848000000
O    -1.496000000    -6.222000000    -1.620000000
C    -2.002000000    -6.525000000    -0.401000000
C    -2.996000000    -5.682000000     0.129000000
H    -3.163000000    -4.705000000    -0.319000000
C    -1.813000000    -7.795000000     0.259000000
H    -1.011000000    -8.433000000    -0.102000000
C    -2.293000000    -7.909000000     1.523000000
H    -2.015000000    -8.795000000     2.088000000
C    -3.200000000    -6.987000000     2.008000000
H    -3.730000000    -7.166000000     2.940000000
C    -3.641000000    -5.887000000     1.333000000
O    -4.720000000    -5.166000000     1.809000000
C    -4.633000000    -3.838000000     2.223000000
C    -5.745000000    -3.076000000     2.166000000
H    -6.700000000    -3.498000000     1.862000000
C    -5.680000000    -1.762000000     2.618000000
O    -6.806000000    -0.948000000     2.459000000
C    -6.581000000     0.419000000     2.100000000
C    -6.980000000     1.447000000     2.932000000
H    -7.514000000     1.221000000     3.851000000
C    -6.798000000     2.757000000     2.463000000
H    -7.363000000     3.561000000     2.926000000
C    -6.212000000     2.985000000     1.243000000
H    -6.280000000     3.980000000     0.810000000
C    -5.794000000     1.924000000     0.452000000
C    -6.067000000     0.641000000     0.822000000
H    -5.654000000    -0.120000000     0.164000000
C    -2.690000000    -1.526000000    -0.725000000
H    -3.697000000    -1.864000000    -0.494000000
C    -1.867000000    -0.817000000     0.173000000
H    -2.324000000    -0.492000000     1.104000000
C    -0.562000000    -0.512000000    -0.105000000
H     0.039000000    -0.067000000     0.694000000
C    -0.054000000    -0.921000000    -1.316000000
H     0.993000000    -0.683000000    -1.483000000
C    -0.796000000    -1.579000000    -2.272000000
H    -0.411000000    -1.942000000    -3.222000000
C    -2.102000000    -1.994000000    -1.935000000
C    -2.842000000    -2.877000000    -2.902000000
O    -2.452000000    -3.080000000    -4.026000000
O    -3.870000000    -3.323000000    -2.497000000
O    -2.412000000    -6.981000000    -7.465000000
H    -2.195000000    -7.696000000    -6.867000000
H    -2.764000000    -6.293000000    -6.899000000
O    -2.448000000     0.923000000    -7.145000000
H    -2.856000000     0.345000000    -6.500000000
H    -2.700000000     1.805000000    -6.868000000
O    -6.188000000    -2.547000000    -1.702000000
H    -6.515000000    -3.184000000    -1.067000000
H    -5.304000000    -2.848000000    -1.911000000
O    -7.633000000    -5.469000000    -2.873000000
H    -7.208000000    -5.312000000    -2.030000000
H    -8.501000000    -5.803000000    -2.645000000
O    -3.508000000    -0.486000000    -5.083000000
H    -2.892000000    -1.183000000    -4.856000000
H    -4.368000000    -0.847000000    -4.869000000
O    -6.035000000    -0.058000000    -6.716000000
H    -5.945000000    -0.847000000    -7.250000000
H    -6.281000000    -0.382000000    -5.849000000
O    -2.357000000    -8.409000000    -4.954000000
H    -1.870000000    -8.769000000    -4.213000000
H    -2.494000000    -7.489000000    -4.727000000
O    -5.441000000    -3.093000000    -7.282000000
H    -5.438000000    -3.561000000    -6.447000000
H    -5.021000000    -3.694000000    -7.896000000
O    -6.068000000    -0.895000000    -3.879000000
H    -6.433000000    -0.057000000    -3.596000000
H    -5.835000000    -1.343000000    -3.065000000
O    -1.985000000     2.035000000    -3.735000000
H    -1.936000000     2.110000000    -2.782000000
H    -2.577000000     1.297000000    -3.887000000
O    -5.674000000    -4.252000000    -4.247000000
H    -6.446000000    -4.151000000    -3.691000000
H    -4.944000000    -3.965000000    -3.698000000
O    -3.267000000    -5.095000000    -5.450000000
H    -2.857000000    -4.495000000    -4.827000000
H    -4.182000000    -5.138000000    -5.174000000
O    -9.000000000    -3.414000000    -0.850000000
H    -9.587000000    -2.770000000    -0.452000000
H    -8.595000000    -2.948000000    -1.582000000
O    -4.568000000    -6.830000000    -2.331000000
H    -5.079000000    -6.897000000    -3.137000000
H    -3.897000000    -6.176000000    -2.526000000
O    -6.367000000    -7.348000000    -4.492000000
H    -6.975000000    -6.892000000    -3.911000000
H    -6.867000000    -7.493000000    -5.296000000
O    -8.433000000    -4.721000000    -5.464000000
H    -7.805000000    -4.584000000    -4.755000000
H    -9.182000000    -5.144000000    -5.043000000
O    -1.608000000    -3.240000000    -7.419000000
H    -1.658000000    -2.379000000    -7.004000000
H    -1.714000000    -3.861000000    -6.698000000
O    -8.565000000    -2.383000000    -3.582000000
H    -7.867000000    -2.103000000    -2.989000000
H    -8.449000000    -1.840000000    -4.362000000
O    -6.189000000    -5.293000000    -0.590000000
H    -6.490000000    -5.886000000     0.099000000
H    -5.327000000    -5.629000000    -0.835000000
