215
-1454.43949
C     3.187000000     0.577000000    -4.279000000
H     3.594000000    -0.335000000    -3.851000000
C     3.050000000     1.714000000    -3.509000000
C     2.271000000     2.794000000    -3.979000000
H     2.155000000     3.679000000    -3.358000000
C     3.430000000     1.678000000    -2.021000000
O     4.630000000     0.872000000    -1.803000000
H     2.560000000     1.270000000    -1.486000000
O     3.633000000     3.048000000    -1.566000000
C     3.140000000     3.306000000    -0.248000000
C     1.991000000     4.064000000    -0.207000000
H     1.640000000     4.482000000    -1.146000000
C     1.363000000     4.232000000     1.003000000
O     0.103000000     4.870000000     1.040000000
C     1.982000000     3.795000000     2.145000000
C     1.302000000     4.112000000     3.505000000
H     2.092000000     4.131000000     4.258000000
C     0.283000000     3.062000000     3.849000000
C     0.740000000     1.981000000     4.574000000
H     1.805000000     1.856000000     4.756000000
H     0.756000000     5.057000000     3.529000000
C     3.208000000     3.127000000     2.040000000
H     3.673000000     2.884000000     2.992000000
C     3.796000000     2.795000000     0.874000000
C     5.064000000     2.076000000     0.785000000
H     5.635000000     2.214000000     1.706000000
H     5.643000000     2.599000000     0.021000000
C     4.873000000     0.609000000     0.499000000
C     4.877000000    -0.287000000     1.599000000
H     5.126000000     0.151000000     2.562000000
C     4.576000000     0.060000000    -0.733000000
C     4.392000000    -1.266000000    -0.869000000
H     4.211000000    -1.627000000    -1.878000000
C     4.281000000    -2.162000000     0.259000000
O     3.698000000    -3.316000000     0.044000000
C     2.254000000    -3.316000000     0.346000000
C     1.430000000    -4.062000000    -0.716000000
C     0.184000000    -4.673000000    -0.401000000
H    -0.119000000    -4.540000000     0.636000000
C     1.789000000    -4.019000000    -2.056000000
H     2.698000000    -3.465000000    -2.277000000
O     2.047000000    -3.928000000     1.601000000
H     1.976000000    -2.257000000     0.454000000
C     4.457000000    -1.630000000     1.526000000
C     4.205000000    -2.353000000     2.802000000
H     4.819000000    -2.043000000     3.651000000
H     4.300000000    -3.439000000     2.750000000
C     2.732000000    -2.244000000     3.255000000
C     2.247000000    -1.347000000     4.218000000
H     2.949000000    -0.649000000     4.666000000
C     1.769000000    -3.075000000     2.628000000
C     0.430000000    -3.037000000     3.063000000
H    -0.325000000    -3.711000000     2.668000000
C     0.045000000    -2.195000000     4.067000000
O    -1.329000000    -2.081000000     4.273000000
C    -2.165000000    -1.142000000     3.651000000
C    -3.489000000    -1.813000000     3.314000000
C    -3.476000000    -3.268000000     3.194000000
H    -2.703000000    -4.013000000     3.363000000
C    -4.589000000    -1.074000000     3.062000000
H    -4.603000000     0.012000000     3.104000000
O    -2.307000000    -0.049000000     4.519000000
H    -1.738000000    -0.784000000     2.703000000
C     0.922000000    -1.265000000     4.630000000
C     0.415000000    -0.211000000     5.653000000
H     1.225000000     0.180000000     6.272000000
H    -0.335000000    -0.615000000     6.336000000
C    -0.108000000     0.903000000     4.784000000
C    -1.462000000     1.013000000     4.423000000
C    -1.928000000     2.214000000     3.822000000
H    -2.984000000     2.303000000     3.581000000
C    -1.023000000     3.190000000     3.421000000
O    -1.563000000     4.051000000     2.491000000
C    -1.008000000     3.971000000     1.169000000
H    -0.634000000     2.937000000     1.133000000
C    -1.995000000     3.986000000     0.024000000
C    -1.737000000     4.673000000    -1.114000000
H    -0.878000000     5.333000000    -1.204000000
C    -3.171000000     3.250000000     0.149000000
H    -3.321000000     2.617000000     1.020000000
C    -3.987000000     3.004000000    -0.937000000
O    -5.191000000     2.296000000    -0.843000000
C    -3.806000000     3.799000000    -2.085000000
H    -4.508000000     3.795000000    -2.913000000
C    -2.687000000     4.623000000    -2.145000000
O    -2.484000000     5.389000000    -3.329000000
C    -1.275000000     5.626000000    -3.965000000
C    -0.518000000     4.596000000    -4.552000000
H    -0.768000000     3.543000000    -4.453000000
C    -1.001000000     6.942000000    -4.250000000
H    -1.602000000     7.763000000    -3.867000000
C     0.224000000     7.237000000    -4.887000000
H     0.617000000     8.235000000    -5.064000000
C     1.053000000     6.225000000    -5.361000000
H     2.001000000     6.354000000    -5.877000000
C     0.652000000     4.908000000    -5.255000000
O     1.294000000     3.930000000    -5.895000000
C     1.896000000     2.852000000    -5.300000000
C     2.077000000     1.746000000    -6.067000000
H     1.742000000     1.764000000    -7.102000000
C     2.711000000     0.553000000    -5.634000000
O     2.865000000    -0.493000000    -6.503000000
C     3.207000000    -1.733000000    -6.085000000
C     2.151000000    -2.577000000    -5.672000000
H     1.146000000    -2.183000000    -5.799000000
C     4.506000000    -2.276000000    -5.905000000
H     5.334000000    -1.767000000    -6.393000000
C     4.772000000    -3.460000000    -5.207000000
H     5.794000000    -3.826000000    -5.140000000
C     3.695000000    -4.198000000    -4.748000000
H     3.900000000    -5.098000000    -4.175000000
C     2.415000000    -3.810000000    -5.041000000
O     1.333000000    -4.423000000    -4.431000000
C     1.043000000    -4.595000000    -3.053000000
C    -0.181000000    -5.195000000    -2.715000000
H    -0.796000000    -5.546000000    -3.540000000
C    -0.547000000    -5.271000000    -1.363000000
O    -1.860000000    -5.746000000    -1.085000000
C    -2.246000000    -6.239000000     0.142000000
C    -3.259000000    -5.596000000     0.755000000
H    -3.602000000    -4.632000000     0.386000000
C    -1.685000000    -7.386000000     0.684000000
H    -0.981000000    -8.005000000     0.133000000
C    -2.216000000    -7.814000000     1.919000000
H    -1.939000000    -8.813000000     2.247000000
C    -3.261000000    -7.104000000     2.607000000
H    -3.733000000    -7.379000000     3.547000000
C    -3.729000000    -5.976000000     2.024000000
O    -4.728000000    -5.257000000     2.584000000
C    -4.620000000    -3.876000000     2.759000000
C    -5.772000000    -3.132000000     2.462000000
H    -6.608000000    -3.660000000     2.011000000
C    -5.753000000    -1.779000000     2.691000000
O    -6.904000000    -1.040000000     2.389000000
C    -6.858000000     0.222000000     1.826000000
C    -7.425000000     1.332000000     2.465000000
H    -7.967000000     1.090000000     3.375000000
C    -7.218000000     2.693000000     2.069000000
H    -7.741000000     3.466000000     2.627000000
C    -6.292000000     3.027000000     1.120000000
H    -6.115000000     4.060000000     0.831000000
C    -5.781000000     1.940000000     0.378000000
C    -5.997000000     0.562000000     0.721000000
H    -5.487000000    -0.161000000     0.090000000
C    -2.289000000    -1.287000000    -0.907000000
H    -3.192000000    -1.606000000    -0.393000000
C    -1.467000000    -0.304000000    -0.340000000
H    -1.716000000     0.172000000     0.605000000
C    -0.160000000    -0.045000000    -0.779000000
H     0.551000000     0.590000000    -0.224000000
C     0.319000000    -0.793000000    -1.876000000
H     1.315000000    -0.593000000    -2.264000000
C    -0.553000000    -1.631000000    -2.562000000
H    -0.135000000    -2.067000000    -3.466000000
C    -1.868000000    -1.901000000    -2.085000000
C    -2.784000000    -2.842000000    -2.852000000
O    -2.543000000    -3.093000000    -4.020000000
O    -3.861000000    -3.122000000    -2.337000000
O    -3.219000000    -5.101000000    -8.833000000
H    -3.012000000    -4.817000000    -9.723000000
H    -3.225000000    -4.293000000    -8.319000000
O    -3.847000000     2.787000000    -5.040000000
H    -3.605000000     2.048000000    -4.482000000
H    -3.103000000     2.894000000    -5.632000000
O    -2.702000000    -8.388000000    -2.303000000
H    -2.394000000    -8.587000000    -3.187000000
H    -3.305000000    -7.654000000    -2.419000000
O    -6.041000000    -4.012000000    -0.986000000
H    -6.622000000    -3.702000000    -1.680000000
H    -5.190000000    -3.627000000    -1.197000000
O    -5.084000000    -1.974000000    -4.745000000
H    -4.412000000    -2.431000000    -4.240000000
H    -5.504000000    -1.391000000    -4.113000000
O    -4.857000000    -0.285000000    -7.030000000
H    -4.632000000    -0.998000000    -7.628000000
H    -4.949000000    -0.709000000    -6.177000000
O    -6.440000000    -3.508000000    -6.672000000
H    -5.865000000    -2.932000000    -6.166000000
H    -7.284000000    -3.057000000    -6.680000000
O    -5.865000000     0.054000000    -2.827000000
H    -6.116000000     0.969000000    -2.951000000
H    -6.547000000    -0.307000000    -2.261000000
O    -2.586000000     0.691000000    -3.499000000
H    -2.059000000     0.479000000    -2.729000000
H    -3.346000000     0.112000000    -3.436000000
O    -0.029000000    -4.402000000    -7.605000000
H    -0.671000000    -4.035000000    -6.998000000
H    -0.479000000    -5.143000000    -8.011000000
O    -3.464000000    -5.133000000    -5.347000000
H    -3.016000000    -4.487000000    -4.800000000
H    -4.185000000    -4.649000000    -5.748000000
O    -7.993000000    -1.497000000    -0.697000000
H    -7.759000000    -1.970000000     0.101000000
H    -7.813000000    -2.116000000    -1.404000000
O    -0.573000000     0.158000000    -5.563000000
H    -1.085000000     0.305000000    -4.767000000
H    -0.572000000     1.006000000    -6.007000000
O    -3.228000000    -2.542000000    -8.246000000
H    -3.356000000    -1.775000000    -8.802000000
H    -2.490000000    -2.309000000    -7.682000000
O    -4.597000000    -6.146000000    -2.726000000
H    -4.121000000    -5.763000000    -3.463000000
H    -4.830000000    -5.397000000    -2.177000000
O    -6.785000000    -6.820000000    -4.377000000
H    -6.160000000    -6.415000000    -3.776000000
H    -6.829000000    -7.734000000    -4.097000000
O    -1.442000000    -2.411000000    -6.181000000
H    -1.183000000    -1.490000000    -6.146000000
H    -2.030000000    -2.523000000    -5.434000000
O    -7.680000000    -3.027000000    -2.775000000
H    -7.707000000    -2.569000000    -3.614000000
H    -8.388000000    -3.669000000    -2.829000000
O    -8.206000000    -5.664000000    -0.485000000
H    -8.186000000    -5.571000000    -1.437000000
H    -7.443000000    -5.172000000    -0.180000000
