215
-1476.18347
C     2.729000000    -1.337000000    -4.176000000
H     3.007000000    -2.196000000    -3.570000000
C     3.058000000    -0.058000000    -3.759000000
C     2.618000000     1.066000000    -4.476000000
H     2.969000000     2.036000000    -4.136000000
C     3.590000000     0.053000000    -2.355000000
O     4.581000000    -0.911000000    -1.971000000
H     2.718000000     0.003000000    -1.686000000
O     4.187000000     1.434000000    -2.120000000
C     3.829000000     2.126000000    -1.006000000
C     2.910000000     3.177000000    -1.165000000
H     2.495000000     3.406000000    -2.144000000
C     2.482000000     3.871000000     0.040000000
O     1.354000000     4.650000000    -0.170000000
C     3.082000000     3.572000000     1.283000000
C     2.629000000     4.317000000     2.502000000
H     3.496000000     4.275000000     3.165000000
C     1.366000000     3.690000000     3.158000000
C     1.516000000     2.652000000     4.063000000
H     2.521000000     2.486000000     4.444000000
H     2.420000000     5.368000000     2.292000000
C     4.081000000     2.615000000     1.353000000
H     4.425000000     2.343000000     2.347000000
C     4.503000000     1.864000000     0.213000000
C     5.511000000     0.703000000     0.349000000
H     6.277000000     0.962000000     1.083000000
H     6.171000000     0.718000000    -0.521000000
C     4.928000000    -0.713000000     0.436000000
C     4.552000000    -1.187000000     1.701000000
H     4.810000000    -0.532000000     2.530000000
C     4.530000000    -1.419000000    -0.661000000
C     3.889000000    -2.638000000    -0.534000000
H     3.497000000    -3.159000000    -1.404000000
C     3.491000000    -3.052000000     0.735000000
O     2.705000000    -4.195000000     0.806000000
C     1.294000000    -3.886000000     1.039000000
C     0.382000000    -4.728000000     0.068000000
C    -0.942000000    -4.732000000     0.327000000
H    -1.321000000    -4.252000000     1.226000000
C     0.912000000    -5.367000000    -1.094000000
H     1.983000000    -5.335000000    -1.278000000
O     0.995000000    -4.093000000     2.412000000
H     0.961000000    -2.848000000     0.888000000
C     3.933000000    -2.395000000     1.894000000
C     3.543000000    -2.803000000     3.319000000
H     4.289000000    -2.239000000     3.882000000
H     3.802000000    -3.837000000     3.559000000
C     2.166000000    -2.285000000     3.672000000
C     2.041000000    -1.087000000     4.372000000
H     2.923000000    -0.551000000     4.713000000
C     0.994000000    -3.007000000     3.263000000
C    -0.276000000    -2.499000000     3.562000000
H    -1.162000000    -3.043000000     3.245000000
C    -0.372000000    -1.374000000     4.367000000
O    -1.622000000    -0.822000000     4.657000000
C    -2.069000000     0.237000000     3.727000000
C    -3.498000000    -0.085000000     3.217000000
C    -4.110000000    -1.357000000     3.314000000
H    -3.502000000    -2.166000000     3.713000000
C    -4.264000000     0.960000000     2.763000000
H    -3.857000000     1.963000000     2.861000000
O    -1.964000000     1.513000000     4.399000000
H    -1.383000000     0.249000000     2.867000000
C     0.760000000    -0.589000000     4.728000000
C     0.649000000     0.706000000     5.544000000
H     1.513000000     0.930000000     6.173000000
H    -0.241000000     0.645000000     6.173000000
C     0.430000000     1.904000000     4.575000000
C    -0.856000000     2.267000000     4.124000000
C    -1.022000000     3.259000000     3.175000000
H    -1.993000000     3.600000000     2.824000000
C     0.078000000     3.970000000     2.702000000
O    -0.147000000     4.826000000     1.658000000
C     0.114000000     4.169000000     0.337000000
H     0.185000000     3.085000000     0.509000000
C    -1.011000000     4.602000000    -0.570000000
C    -0.753000000     4.379000000    -1.957000000
H     0.226000000     4.088000000    -2.328000000
C    -2.274000000     4.944000000    -0.105000000
H    -2.404000000     4.995000000     0.973000000
C    -3.271000000     4.983000000    -1.090000000
O    -4.508000000     5.250000000    -0.726000000
C    -3.004000000     4.859000000    -2.445000000
H    -3.743000000     5.121000000    -3.198000000
C    -1.765000000     4.540000000    -2.904000000
O    -1.676000000     4.406000000    -4.201000000
C    -0.498000000     4.370000000    -4.882000000
C     0.002000000     3.087000000    -5.297000000
H    -0.444000000     2.124000000    -5.060000000
C     0.113000000     5.553000000    -5.152000000
H    -0.374000000     6.466000000    -4.820000000
C     1.245000000     5.583000000    -5.965000000
H     1.765000000     6.519000000    -6.154000000
C     1.809000000     4.342000000    -6.328000000
H     2.725000000     4.374000000    -6.913000000
C     1.156000000     3.134000000    -6.091000000
O     1.710000000     1.928000000    -6.573000000
C     1.991000000     0.886000000    -5.716000000
C     1.740000000    -0.424000000    -6.214000000
H     1.102000000    -0.635000000    -7.068000000
C     2.056000000    -1.513000000    -5.420000000
O     1.756000000    -2.759000000    -5.868000000
C     2.059000000    -3.991000000    -5.395000000
C     1.115000000    -4.665000000    -4.567000000
H     0.175000000    -4.146000000    -4.400000000
C     3.343000000    -4.532000000    -5.524000000
H     4.139000000    -3.997000000    -6.036000000
C     3.581000000    -5.818000000    -4.962000000
H     4.537000000    -6.286000000    -5.181000000
C     2.577000000    -6.505000000    -4.258000000
H     2.849000000    -7.457000000    -3.809000000
C     1.393000000    -5.894000000    -3.982000000
O     0.462000000    -6.528000000    -3.176000000
C     0.021000000    -5.995000000    -1.978000000
C    -1.372000000    -6.025000000    -1.729000000
H    -2.061000000    -6.452000000    -2.454000000
C    -1.820000000    -5.400000000    -0.571000000
O    -3.152000000    -5.475000000    -0.280000000
C    -3.779000000    -5.273000000     0.902000000
C    -4.594000000    -4.135000000     1.061000000
H    -4.675000000    -3.356000000     0.307000000
C    -3.517000000    -6.132000000     2.007000000
H    -2.844000000    -6.969000000     1.838000000
C    -4.078000000    -5.909000000     3.297000000
H    -3.812000000    -6.621000000     4.074000000
C    -4.979000000    -4.883000000     3.443000000
H    -5.396000000    -4.703000000     4.430000000
C    -5.182000000    -4.014000000     2.359000000
O    -5.924000000    -2.892000000     2.713000000
C    -5.351000000    -1.627000000     2.764000000
C    -6.147000000    -0.574000000     2.250000000
H    -7.168000000    -0.741000000     1.915000000
C    -5.593000000     0.729000000     2.302000000
O    -6.337000000     1.762000000     1.849000000
C    -5.943000000     3.043000000     1.748000000
C    -5.918000000     3.807000000     2.890000000
H    -6.172000000     3.302000000     3.819000000
C    -5.387000000     5.097000000     2.821000000
H    -5.252000000     5.618000000     3.765000000
C    -4.938000000     5.566000000     1.603000000
H    -4.511000000     6.564000000     1.536000000
C    -4.999000000     4.828000000     0.438000000
C    -5.550000000     3.563000000     0.529000000
H    -5.769000000     2.964000000    -0.351000000
C    -2.365000000    -0.679000000    -0.818000000
H    -3.412000000    -0.432000000    -0.664000000
C    -1.371000000     0.158000000    -0.268000000
H    -1.718000000     0.952000000     0.389000000
C     0.010000000    -0.072000000    -0.334000000
H     0.696000000     0.708000000    -0.037000000
C     0.363000000    -1.192000000    -1.121000000
H     1.432000000    -1.327000000    -1.266000000
C    -0.574000000    -2.030000000    -1.719000000
H    -0.228000000    -2.849000000    -2.344000000
C    -1.950000000    -1.776000000    -1.583000000
C    -2.996000000    -2.354000000    -2.505000000
O    -2.737000000    -2.924000000    -3.524000000
O    -4.174000000    -2.229000000    -2.223000000
O    -5.061000000    -5.450000000    -7.276000000
H    -4.742000000    -5.004000000    -6.491000000
H    -4.698000000    -6.334000000    -7.213000000
O    -3.257000000     2.219000000    -5.850000000
H    -2.797000000     2.348000000    -5.021000000
H    -2.850000000     1.440000000    -6.230000000
O    -1.803000000     0.054000000    -7.179000000
H    -0.942000000    -0.019000000    -7.591000000
H    -1.783000000    -0.587000000    -6.468000000
O    -6.619000000    -1.931000000    -1.457000000
H    -5.689000000    -2.035000000    -1.654000000
H    -7.067000000    -2.411000000    -2.154000000
O    -5.200000000     0.255000000    -3.049000000
H    -4.874000000    -0.508000000    -2.571000000
H    -5.294000000    -0.050000000    -3.952000000
O    -6.877000000     2.356000000    -2.607000000
H    -6.440000000     3.110000000    -3.003000000
H    -6.164000000     1.766000000    -2.364000000
O    -2.132000000     1.524000000    -3.124000000
H    -1.691000000     0.901000000    -2.547000000
H    -2.930000000     1.763000000    -2.653000000
O    -6.750000000    -6.041000000    -3.601000000
H    -6.187000000    -6.705000000    -4.000000000
H    -6.195000000    -5.620000000    -2.944000000
O    -2.065000000    -3.816000000    -7.135000000
H    -2.577000000    -4.317000000    -6.500000000
H    -1.615000000    -3.153000000    -6.610000000
O    -7.914000000    -2.971000000     0.858000000
H    -7.233000000    -3.047000000     1.526000000
H    -7.447000000    -2.702000000     0.068000000
O    -1.220000000    -1.962000000    -5.366000000
H    -1.931000000    -2.403000000    -4.901000000
H    -0.584000000    -1.749000000    -4.683000000
O    -4.973000000    -1.788000000    -7.205000000
H    -4.605000000    -2.547000000    -7.657000000
H    -5.009000000    -2.050000000    -6.285000000
O    -3.389000000    -5.044000000    -5.036000000
H    -3.416000000    -5.719000000    -4.358000000
H    -3.176000000    -4.239000000    -4.564000000
O    -7.400000000     1.040000000    -5.190000000
H    -8.120000000     1.660000000    -5.306000000
H    -6.816000000     1.466000000    -4.562000000
O    -5.000000000    -4.887000000    -2.224000000
H    -4.167000000    -5.303000000    -2.001000000
H    -4.864000000    -3.959000000    -2.030000000
O    -8.457000000     0.148000000    -1.874000000
H    -8.026000000     0.991000000    -2.013000000
H    -7.741000000    -0.486000000    -1.845000000
O    -7.884000000    -3.557000000    -3.213000000
H    -7.498000000    -4.402000000    -3.444000000
H    -8.380000000    -3.730000000    -2.413000000
O    -5.736000000    -2.163000000    -4.552000000
H    -5.125000000    -2.521000000    -3.908000000
H    -6.590000000    -2.212000000    -4.124000000
O    -3.405000000    -7.906000000    -4.044000000
H    -2.628000000    -8.464000000    -4.043000000
H    -4.128000000    -8.503000000    -4.238000000
