215
-1472.72629
C     0.673000000    -0.552000000    -4.383000000
H     0.810000000    -1.600000000    -4.129000000
C     1.618000000     0.406000000    -3.947000000
C     1.465000000     1.737000000    -4.402000000
H     2.142000000     2.524000000    -4.082000000
C     2.644000000     0.091000000    -2.867000000
O     3.285000000    -1.159000000    -3.128000000
H     2.138000000    -0.019000000    -1.897000000
O     3.757000000     0.969000000    -2.906000000
C     4.162000000     1.425000000    -1.659000000
C     3.497000000     2.610000000    -1.189000000
H     2.857000000     3.148000000    -1.883000000
C     3.533000000     2.970000000     0.126000000
O     2.818000000     4.079000000     0.536000000
C     4.296000000     2.270000000     1.028000000
C     4.239000000     2.591000000     2.542000000
H     5.112000000     2.142000000     3.018000000
C     3.067000000     2.051000000     3.224000000
C     3.165000000     0.877000000     3.980000000
H     4.079000000     0.288000000     3.981000000
H     4.190000000     3.674000000     2.677000000
C     4.939000000     1.108000000     0.582000000
H     5.524000000     0.494000000     1.262000000
C     4.895000000     0.667000000    -0.765000000
C     5.582000000    -0.658000000    -1.173000000
H     6.358000000    -0.853000000    -0.429000000
H     6.011000000    -0.648000000    -2.177000000
C     4.551000000    -1.783000000    -1.180000000
C     4.602000000    -2.612000000    -0.040000000
H     5.287000000    -2.416000000     0.781000000
C     3.493000000    -1.990000000    -2.106000000
C     2.611000000    -3.003000000    -1.976000000
H     1.836000000    -3.280000000    -2.687000000
C     2.628000000    -3.774000000    -0.832000000
O     1.684000000    -4.792000000    -0.695000000
C     0.431000000    -4.449000000    -0.084000000
C    -0.788000000    -5.152000000    -0.755000000
C    -1.878000000    -5.470000000    -0.043000000
H    -1.847000000    -5.254000000     1.022000000
C    -0.885000000    -5.116000000    -2.146000000
H    -0.024000000    -4.841000000    -2.750000000
O     0.569000000    -4.805000000     1.329000000
H     0.307000000    -3.358000000    -0.146000000
C     3.598000000    -3.579000000     0.145000000
C     3.534000000    -4.333000000     1.511000000
H     4.495000000    -4.231000000     2.019000000
H     3.301000000    -5.390000000     1.361000000
C     2.398000000    -3.626000000     2.390000000
C     2.745000000    -2.599000000     3.300000000
H     3.794000000    -2.360000000     3.457000000
C     1.022000000    -3.917000000     2.211000000
C     0.016000000    -3.282000000     2.953000000
H    -1.009000000    -3.481000000     2.649000000
C     0.389000000    -2.443000000     3.945000000
O    -0.683000000    -1.839000000     4.636000000
C    -1.002000000    -0.447000000     4.302000000
C    -2.491000000    -0.303000000     3.955000000
C    -3.096000000    -1.120000000     3.014000000
H    -2.684000000    -2.040000000     2.606000000
C    -3.126000000     0.938000000     4.315000000
H    -2.699000000     1.669000000     4.996000000
O    -0.396000000     0.511000000     5.196000000
H    -0.506000000    -0.246000000     3.341000000
C     1.755000000    -2.043000000     4.108000000
C     2.024000000    -1.020000000     5.145000000
H     3.033000000    -1.261000000     5.488000000
H     1.405000000    -1.194000000     6.028000000
C     2.030000000     0.389000000     4.634000000
C     0.771000000     1.055000000     4.659000000
C     0.616000000     2.207000000     3.880000000
H    -0.329000000     2.739000000     3.802000000
C     1.786000000     2.702000000     3.185000000
O     1.568000000     3.848000000     2.486000000
C     1.466000000     3.774000000     1.097000000
H     1.142000000     2.740000000     0.906000000
C     0.406000000     4.730000000     0.532000000
C     0.525000000     5.223000000    -0.790000000
H     1.494000000     5.050000000    -1.251000000
C    -0.724000000     5.084000000     1.301000000
H    -0.735000000     4.929000000     2.376000000
C    -1.806000000     5.695000000     0.666000000
O    -2.916000000     6.054000000     1.393000000
C    -1.691000000     6.260000000    -0.640000000
H    -2.470000000     6.916000000    -1.019000000
C    -0.493000000     6.042000000    -1.307000000
O    -0.293000000     6.677000000    -2.472000000
C     0.418000000     6.156000000    -3.528000000
C     0.013000000     4.965000000    -4.142000000
H    -0.719000000     4.400000000    -3.570000000
C     1.426000000     6.950000000    -4.142000000
H     1.787000000     7.915000000    -3.797000000
C     2.140000000     6.428000000    -5.196000000
H     2.863000000     7.045000000    -5.723000000
C     1.758000000     5.211000000    -5.770000000
H     2.333000000     4.708000000    -6.543000000
C     0.662000000     4.448000000    -5.223000000
O     0.319000000     3.280000000    -5.924000000
C     0.450000000     2.034000000    -5.317000000
C    -0.515000000     1.077000000    -5.692000000
H    -1.354000000     1.402000000    -6.302000000
C    -0.295000000    -0.239000000    -5.263000000
O    -1.277000000    -1.152000000    -5.603000000
C    -1.007000000    -2.528000000    -5.669000000
C    -1.706000000    -3.385000000    -4.770000000
H    -2.253000000    -2.982000000    -3.921000000
C    -0.197000000    -3.108000000    -6.724000000
H     0.275000000    -2.461000000    -7.458000000
C    -0.135000000    -4.474000000    -6.892000000
H     0.296000000    -4.909000000    -7.789000000
C    -0.901000000    -5.252000000    -6.056000000
H    -0.958000000    -6.329000000    -6.190000000
C    -1.589000000    -4.720000000    -5.014000000
O    -2.182000000    -5.584000000    -4.127000000
C    -2.037000000    -5.570000000    -2.782000000
C    -3.123000000    -5.968000000    -2.008000000
H    -4.123000000    -6.143000000    -2.396000000
C    -3.049000000    -5.958000000    -0.642000000
O    -4.185000000    -6.225000000     0.072000000
C    -4.839000000    -5.251000000     0.843000000
C    -4.712000000    -3.850000000     0.696000000
H    -4.270000000    -3.389000000    -0.183000000
C    -5.413000000    -5.805000000     1.985000000
H    -5.539000000    -6.881000000     2.080000000
C    -5.923000000    -4.944000000     3.041000000
H    -6.340000000    -5.384000000     3.943000000
C    -5.630000000    -3.599000000     2.845000000
H    -5.944000000    -2.954000000     3.662000000
C    -5.110000000    -3.023000000     1.715000000
O    -4.997000000    -1.661000000     1.533000000
C    -4.366000000    -0.838000000     2.505000000
C    -4.952000000     0.347000000     2.843000000
H    -5.934000000     0.513000000     2.409000000
C    -4.314000000     1.307000000     3.602000000
O    -4.897000000     2.527000000     3.912000000
C    -4.195000000     3.684000000     3.931000000
C    -3.874000000     4.380000000     5.110000000
H    -4.257000000     3.912000000     6.014000000
C    -3.244000000     5.625000000     5.053000000
H    -2.913000000     6.164000000     5.937000000
C    -3.043000000     6.211000000     3.788000000
H    -2.538000000     7.165000000     3.662000000
C    -3.321000000     5.542000000     2.631000000
C    -3.916000000     4.275000000     2.663000000
H    -4.297000000     3.860000000     1.733000000
C    -2.500000000     0.825000000     0.279000000
H    -3.245000000     1.498000000     0.695000000
C    -1.213000000     0.873000000     0.828000000
H    -0.933000000     1.621000000     1.565000000
C    -0.199000000     0.182000000     0.169000000
H     0.763000000     0.276000000     0.654000000
C    -0.431000000    -0.623000000    -0.885000000
H     0.394000000    -1.138000000    -1.370000000
C    -1.770000000    -0.761000000    -1.344000000
H    -2.024000000    -1.482000000    -2.117000000
C    -2.853000000    -0.048000000    -0.715000000
C    -4.295000000    -0.140000000    -1.209000000
O    -4.578000000    -0.868000000    -2.200000000
O    -5.149000000     0.590000000    -0.686000000
O    -7.148000000     5.128000000     1.620000000
H    -7.602000000     5.190000000     2.461000000
H    -6.879000000     4.212000000     1.561000000
O    -5.418000000     2.336000000    -2.811000000
H    -5.239000000     1.502000000    -2.377000000
H    -6.118000000     2.137000000    -3.432000000
O    -3.937000000     1.043000000    -6.211000000
H    -3.868000000     0.278000000    -5.640000000
H    -3.404000000     1.712000000    -5.781000000
O    -8.497000000    -2.540000000    -3.465000000
H    -8.071000000    -3.389000000    -3.349000000
H    -8.920000000    -2.367000000    -2.624000000
O    -3.124000000     3.022000000    -4.371000000
H    -2.564000000     3.019000000    -3.595000000
H    -3.965000000     2.684000000    -4.061000000
O   -10.410000000    -0.950000000    -0.068000000
H   -10.264000000    -1.581000000    -0.772000000
H    -9.531000000    -0.696000000     0.212000000
O    -2.604000000     3.046000000    -1.590000000
H    -3.345000000     3.570000000    -1.284000000
H    -2.185000000     2.733000000    -0.788000000
O    -4.202000000    -1.686000000    -5.036000000
H    -4.248000000    -1.236000000    -4.192000000
H    -4.668000000    -2.510000000    -4.894000000
O    -4.770000000     4.322000000    -1.192000000
H    -4.938000000     3.565000000    -1.754000000
H    -5.452000000     4.951000000    -1.428000000
O    -5.761000000    -3.184000000    -2.259000000
H    -5.323000000    -2.339000000    -2.165000000
H    -5.950000000    -3.457000000    -1.361000000
O    -7.455000000    -0.952000000    -0.299000000
H    -6.628000000    -0.475000000    -0.369000000
H    -7.799000000    -0.968000000    -1.192000000
O    -6.650000000    -0.183000000    -3.604000000
H    -6.040000000    -0.532000000    -2.954000000
H    -7.256000000    -0.904000000    -3.776000000
O    -6.981000000     2.167000000    -5.327000000
H    -6.514000000     1.718000000    -6.031000000
H    -7.558000000     1.499000000    -4.957000000
O    -8.572000000    -1.778000000     1.998000000
H    -7.796000000    -1.641000000     1.454000000
H    -8.514000000    -1.102000000     2.673000000
O    -6.175000000     2.664000000     0.703000000
H    -6.093000000     1.855000000     0.198000000
H    -5.787000000     3.336000000     0.144000000
O    -5.376000000     5.483000000    -3.922000000
H    -6.149000000     5.296000000    -4.455000000
H    -4.867000000     4.674000000    -3.945000000
O    -5.596000000    -4.116000000    -5.258000000
H    -6.234000000    -4.220000000    -5.964000000
H    -6.128000000    -4.002000000    -4.470000000
O    -8.712000000     1.852000000     0.011000000
H    -7.973000000     2.044000000     0.588000000
H    -9.383000000     2.487000000     0.263000000
O    -9.899000000     1.768000000    -2.536000000
H    -9.390000000     1.520000000    -1.764000000
H   -10.531000000     2.409000000    -2.211000000
