215
-1472.02169
C     0.999000000    -0.877000000    -4.426000000
H     0.742000000    -1.762000000    -3.849000000
C     2.150000000    -0.169000000    -4.086000000
C     2.218000000     1.047000000    -4.733000000
H     3.089000000     1.690000000    -4.638000000
C     3.041000000    -0.576000000    -2.920000000
O     3.114000000    -1.993000000    -2.811000000
H     2.594000000    -0.339000000    -1.943000000
O     4.310000000     0.068000000    -2.993000000
C     4.664000000     0.652000000    -1.821000000
C     4.160000000     1.926000000    -1.656000000
H     3.763000000     2.322000000    -2.588000000
C     4.022000000     2.443000000    -0.427000000
O     3.341000000     3.613000000    -0.310000000
C     4.535000000     1.784000000     0.724000000
C     4.402000000     2.358000000     2.094000000
H     5.249000000     2.075000000     2.723000000
C     3.145000000     1.981000000     2.849000000
C     3.068000000     0.788000000     3.642000000
H     3.908000000     0.105000000     3.738000000
H     4.457000000     3.428000000     1.882000000
C     5.037000000     0.503000000     0.515000000
H     5.317000000    -0.026000000     1.422000000
C     5.061000000    -0.132000000    -0.728000000
C     5.295000000    -1.672000000    -0.859000000
H     5.943000000    -2.007000000    -0.046000000
H     5.622000000    -1.912000000    -1.873000000
C     4.021000000    -2.546000000    -0.673000000
C     3.807000000    -3.272000000     0.546000000
H     4.469000000    -3.114000000     1.394000000
C     3.070000000    -2.665000000    -1.662000000
C     1.952000000    -3.510000000    -1.484000000
H     1.217000000    -3.615000000    -2.278000000
C     1.772000000    -4.144000000    -0.259000000
O     0.691000000    -4.924000000    -0.104000000
C    -0.458000000    -4.276000000     0.415000000
C    -1.695000000    -4.540000000    -0.292000000
C    -2.915000000    -4.266000000     0.342000000
H    -2.966000000    -4.138000000     1.420000000
C    -1.718000000    -4.966000000    -1.635000000
H    -0.766000000    -5.140000000    -2.130000000
O    -0.569000000    -4.695000000     1.784000000
H    -0.191000000    -3.210000000     0.351000000
C     2.676000000    -4.057000000     0.760000000
C     2.342000000    -4.663000000     2.101000000
H     3.321000000    -4.719000000     2.580000000
H     2.046000000    -5.713000000     2.052000000
C     1.390000000    -3.809000000     2.869000000
C     1.932000000    -2.781000000     3.650000000
H     3.010000000    -2.674000000     3.744000000
C     0.012000000    -3.907000000     2.765000000
C    -0.783000000    -3.007000000     3.488000000
H    -1.858000000    -3.016000000     3.327000000
C    -0.241000000    -2.065000000     4.318000000
O    -1.154000000    -1.159000000     4.919000000
C    -1.255000000     0.117000000     4.228000000
C    -2.743000000     0.486000000     4.093000000
C    -3.717000000    -0.396000000     3.924000000
H    -3.437000000    -1.446000000     3.911000000
C    -3.077000000     1.841000000     3.928000000
H    -2.320000000     2.620000000     3.889000000
O    -0.413000000     1.064000000     4.850000000
H    -0.906000000    -0.110000000     3.210000000
C     1.156000000    -1.954000000     4.433000000
C     1.767000000    -0.786000000     5.221000000
H     2.647000000    -1.085000000     5.793000000
H     1.005000000    -0.467000000     5.935000000
C     1.872000000     0.471000000     4.349000000
C     0.818000000     1.374000000     4.254000000
C     0.850000000     2.443000000     3.414000000
H    -0.053000000     3.023000000     3.244000000
C     2.026000000     2.750000000     2.668000000
O     1.874000000     3.671000000     1.702000000
C     2.016000000     3.454000000     0.270000000
H     1.654000000     2.439000000     0.051000000
C     0.976000000     4.388000000    -0.373000000
C     1.200000000     4.916000000    -1.631000000
H     2.119000000     4.650000000    -2.147000000
C    -0.216000000     4.580000000     0.306000000
H    -0.517000000     4.099000000     1.233000000
C    -1.152000000     5.420000000    -0.268000000
O    -2.302000000     5.692000000     0.413000000
C    -0.958000000     5.915000000    -1.556000000
H    -1.769000000     6.492000000    -1.992000000
C     0.216000000     5.716000000    -2.259000000
O     0.589000000     6.330000000    -3.435000000
C     1.284000000     5.687000000    -4.405000000
C     1.047000000     4.368000000    -4.794000000
H     0.237000000     3.763000000    -4.396000000
C     2.372000000     6.421000000    -4.851000000
H     2.504000000     7.443000000    -4.508000000
C     3.138000000     5.914000000    -5.888000000
H     3.848000000     6.570000000    -6.386000000
C     2.869000000     4.634000000    -6.402000000
H     3.432000000     4.301000000    -7.271000000
C     1.850000000     3.838000000    -5.875000000
O     1.466000000     2.627000000    -6.493000000
C     1.359000000     1.446000000    -5.809000000
C     0.356000000     0.586000000    -6.192000000
H    -0.328000000     0.885000000    -6.981000000
C     0.137000000    -0.552000000    -5.467000000
O    -0.949000000    -1.347000000    -5.835000000
C    -0.966000000    -2.753000000    -5.635000000
C    -1.868000000    -3.306000000    -4.708000000
H    -2.479000000    -2.689000000    -4.055000000
C    -0.118000000    -3.539000000    -6.343000000
H     0.608000000    -3.070000000    -7.001000000
C    -0.124000000    -4.922000000    -6.153000000
H     0.661000000    -5.494000000    -6.640000000
C    -1.054000000    -5.518000000    -5.271000000
H    -1.083000000    -6.596000000    -5.135000000
C    -1.913000000    -4.692000000    -4.556000000
O    -2.794000000    -5.290000000    -3.672000000
C    -2.884000000    -5.007000000    -2.344000000
C    -4.098000000    -4.666000000    -1.723000000
H    -4.998000000    -4.867000000    -2.298000000
C    -4.090000000    -4.340000000    -0.379000000
O    -5.323000000    -4.147000000     0.192000000
C    -5.443000000    -3.785000000     1.509000000
C    -5.758000000    -2.483000000     1.921000000
H    -5.791000000    -1.674000000     1.196000000
C    -5.433000000    -4.749000000     2.494000000
H    -5.380000000    -5.796000000     2.210000000
C    -5.642000000    -4.558000000     3.842000000
H    -5.606000000    -5.393000000     4.537000000
C    -5.937000000    -3.279000000     4.261000000
H    -6.132000000    -3.050000000     5.305000000
C    -5.857000000    -2.268000000     3.318000000
O    -6.045000000    -0.963000000     3.754000000
C    -5.076000000     0.016000000     3.862000000
C    -5.414000000     1.350000000     3.931000000
H    -6.446000000     1.651000000     3.765000000
C    -4.411000000     2.269000000     3.941000000
O    -4.684000000     3.576000000     3.981000000
C    -3.827000000     4.558000000     3.513000000
C    -3.101000000     5.257000000     4.387000000
H    -3.315000000     5.055000000     5.434000000
C    -2.038000000     6.086000000     4.030000000
H    -1.417000000     6.505000000     4.818000000
C    -1.771000000     6.279000000     2.637000000
H    -0.828000000     6.722000000     2.326000000
C    -2.607000000     5.623000000     1.746000000
C    -3.607000000     4.768000000     2.172000000
H    -4.182000000     4.144000000     1.493000000
C    -1.895000000     1.126000000     0.675000000
H    -2.270000000     2.076000000     1.048000000
C    -0.520000000     0.828000000     0.645000000
H     0.179000000     1.466000000     1.180000000
C    -0.031000000    -0.174000000    -0.149000000
H     1.028000000    -0.347000000    -0.210000000
C    -0.969000000    -0.996000000    -0.793000000
H    -0.618000000    -1.746000000    -1.498000000
C    -2.324000000    -0.792000000    -0.661000000
H    -2.886000000    -1.535000000    -1.221000000
C    -2.813000000     0.297000000     0.016000000
C    -4.242000000     0.709000000    -0.078000000
O    -4.939000000     0.113000000    -0.880000000
O    -4.594000000     1.747000000     0.435000000
O    -8.318000000     5.963000000     0.016000000
H    -8.096000000     5.250000000     0.614000000
H    -8.693000000     5.526000000    -0.749000000
O    -4.081000000     3.425000000    -1.893000000
H    -4.209000000     2.631000000    -1.376000000
H    -4.426000000     4.128000000    -1.343000000
O    -9.426000000     3.191000000     1.947000000
H    -9.317000000     3.318000000     2.889000000
H    -8.548000000     3.314000000     1.585000000
O    -5.006000000    -2.174000000    -4.362000000
H    -5.479000000    -2.298000000    -3.539000000
H    -5.176000000    -2.974000000    -4.859000000
O    -2.076000000     1.960000000    -5.161000000
H    -1.688000000     2.375000000    -4.391000000
H    -2.916000000     1.620000000    -4.852000000
O    -8.877000000    -1.851000000    -1.998000000
H    -9.053000000    -2.184000000    -1.118000000
H    -7.968000000    -2.095000000    -2.170000000
O    -1.552000000     2.385000000    -2.369000000
H    -1.244000000     1.882000000    -1.615000000
H    -2.363000000     2.795000000    -2.067000000
O    -8.487000000     0.806000000    -3.022000000
H    -7.774000000     1.089000000    -3.594000000
H    -8.403000000    -0.147000000    -2.988000000
O    -4.215000000     0.654000000    -3.963000000
H    -4.088000000     1.025000000    -3.090000000
H    -4.278000000    -0.290000000    -3.816000000
O    -5.458000000     5.823000000    -1.007000000
H    -6.344000000     5.462000000    -0.997000000
H    -5.548000000     6.688000000    -0.606000000
O    -6.099000000    -2.131000000    -1.872000000
H    -5.630000000    -1.446000000    -1.393000000
H    -6.158000000    -2.858000000    -1.252000000
O    -3.791000000    -1.150000000    -6.686000000
H    -4.060000000    -1.410000000    -5.805000000
H    -2.836000000    -1.113000000    -6.643000000
O    -8.213000000    -0.539000000     2.337000000
H    -8.136000000    -0.301000000     1.413000000
H    -7.313000000    -0.699000000     2.619000000
O    -7.082000000     5.295000000     2.632000000
H    -6.629000000     4.826000000     1.931000000
H    -7.183000000     4.646000000     3.328000000
O    -7.594000000     0.727000000    -0.323000000
H    -6.642000000     0.761000000    -0.423000000
H    -7.930000000     0.765000000    -1.218000000
O    -6.782000000     1.275000000    -5.168000000
H    -6.703000000     0.891000000    -6.041000000
H    -5.911000000     1.173000000    -4.782000000
O    -8.829000000     0.521000000     4.986000000
H    -8.476000000     0.266000000     4.134000000
H    -9.651000000     0.037000000     5.059000000
O    -6.845000000     3.326000000     0.804000000
H    -6.035000000     2.822000000     0.887000000
H    -7.389000000     2.810000000     0.209000000
O    -3.799000000     6.234000000    -3.289000000
H    -4.328000000     5.610000000    -2.793000000
H    -3.887000000     7.057000000    -2.810000000
