215
-1461.38195
C     0.685000000    -0.709000000    -4.490000000
H     0.540000000    -1.665000000    -3.994000000
C     1.739000000     0.120000000    -4.100000000
C     1.898000000     1.393000000    -4.685000000
H     2.627000000     2.125000000    -4.347000000
C     2.691000000    -0.353000000    -2.964000000
O     3.228000000    -1.685000000    -3.236000000
H     2.124000000    -0.271000000    -2.025000000
O     3.797000000     0.618000000    -2.821000000
C     4.208000000     0.977000000    -1.549000000
C     3.807000000     2.190000000    -1.124000000
H     3.307000000     2.839000000    -1.837000000
C     3.927000000     2.579000000     0.254000000
O     3.231000000     3.707000000     0.625000000
C     4.548000000     1.687000000     1.138000000
C     4.604000000     2.041000000     2.640000000
H     5.448000000     1.476000000     3.042000000
C     3.335000000     1.671000000     3.387000000
C     3.202000000     0.427000000     3.999000000
H     4.105000000    -0.178000000     4.016000000
H     4.774000000     3.094000000     2.873000000
C     5.029000000     0.453000000     0.711000000
H     5.503000000    -0.220000000     1.422000000
C     4.788000000     0.033000000    -0.617000000
C     5.229000000    -1.304000000    -1.073000000
H     5.983000000    -1.616000000    -0.347000000
H     5.681000000    -1.318000000    -2.067000000
C     4.184000000    -2.355000000    -1.062000000
C     3.961000000    -3.162000000     0.078000000
H     4.584000000    -2.970000000     0.948000000
C     3.331000000    -2.555000000    -2.175000000
C     2.399000000    -3.569000000    -2.219000000
H     1.713000000    -3.784000000    -3.034000000
C     2.207000000    -4.342000000    -1.042000000
O     1.027000000    -5.076000000    -1.003000000
C    -0.111000000    -4.529000000    -0.299000000
C    -1.427000000    -4.823000000    -1.007000000
C    -2.538000000    -4.823000000    -0.242000000
H    -2.462000000    -4.724000000     0.837000000
C    -1.552000000    -4.888000000    -2.387000000
H    -0.649000000    -4.873000000    -2.991000000
O    -0.069000000    -5.093000000     1.067000000
H    -0.162000000    -3.443000000    -0.134000000
C     3.035000000    -4.165000000     0.115000000
C     2.925000000    -4.912000000     1.377000000
H     3.898000000    -4.837000000     1.866000000
H     2.804000000    -5.958000000     1.087000000
C     1.837000000    -4.153000000     2.179000000
C     2.248000000    -3.213000000     3.128000000
H     3.291000000    -3.007000000     3.354000000
C     0.463000000    -4.300000000     1.991000000
C    -0.454000000    -3.439000000     2.564000000
H    -1.510000000    -3.492000000     2.310000000
C    -0.057000000    -2.450000000     3.386000000
O    -1.093000000    -1.684000000     3.931000000
C    -1.175000000    -0.257000000     3.650000000
C    -2.663000000     0.318000000     3.461000000
C    -3.623000000    -0.555000000     3.142000000
H    -3.313000000    -1.596000000     3.106000000
C    -2.960000000     1.681000000     3.654000000
H    -2.215000000     2.418000000     3.942000000
O    -0.477000000     0.372000000     4.714000000
H    -0.663000000    -0.157000000     2.682000000
C     1.314000000    -2.397000000     3.747000000
C     1.721000000    -1.432000000     4.927000000
H     2.676000000    -1.805000000     5.303000000
H     1.029000000    -1.482000000     5.770000000
C     1.913000000    -0.017000000     4.428000000
C     0.784000000     0.832000000     4.383000000
C     1.041000000     2.189000000     4.083000000
H     0.250000000     2.934000000     4.107000000
C     2.218000000     2.535000000     3.444000000
O     2.175000000     3.607000000     2.662000000
C     1.969000000     3.539000000     1.202000000
H     1.544000000     2.563000000     0.924000000
C     0.983000000     4.580000000     0.668000000
C     0.931000000     4.900000000    -0.660000000
H     1.750000000     4.473000000    -1.233000000
C    -0.019000000     5.162000000     1.464000000
H     0.115000000     5.051000000     2.537000000
C    -0.927000000     6.101000000     0.925000000
O    -1.789000000     6.873000000     1.688000000
C    -0.994000000     6.297000000    -0.428000000
H    -1.651000000     7.075000000    -0.808000000
C    -0.026000000     5.727000000    -1.270000000
O     0.163000000     6.235000000    -2.567000000
C     1.101000000     5.665000000    -3.490000000
C     0.608000000     4.654000000    -4.301000000
H    -0.372000000     4.214000000    -4.132000000
C     2.342000000     6.272000000    -3.613000000
H     2.599000000     7.183000000    -3.079000000
C     3.135000000     5.855000000    -4.655000000
H     4.136000000     6.249000000    -4.811000000
C     2.724000000     4.723000000    -5.380000000
H     3.371000000     4.318000000    -6.155000000
C     1.495000000     4.130000000    -5.242000000
O     1.166000000     3.077000000    -6.117000000
C     1.008000000     1.815000000    -5.639000000
C    -0.011000000     0.957000000    -6.041000000
H    -0.706000000     1.313000000    -6.797000000
C    -0.188000000    -0.310000000    -5.497000000
O    -1.292000000    -1.039000000    -5.825000000
C    -1.258000000    -2.447000000    -5.795000000
C    -2.191000000    -3.136000000    -4.936000000
H    -2.842000000    -2.661000000    -4.207000000
C    -0.419000000    -3.184000000    -6.620000000
H     0.354000000    -2.638000000    -7.154000000
C    -0.465000000    -4.558000000    -6.795000000
H     0.234000000    -5.088000000    -7.438000000
C    -1.359000000    -5.190000000    -5.951000000
H    -1.305000000    -6.276000000    -5.976000000
C    -2.167000000    -4.513000000    -5.040000000
O    -2.939000000    -5.302000000    -4.222000000
C    -2.845000000    -5.046000000    -2.906000000
C    -3.953000000    -5.030000000    -2.144000000
H    -4.913000000    -5.337000000    -2.551000000
C    -3.782000000    -4.959000000    -0.761000000
O    -4.886000000    -5.005000000     0.093000000
C    -5.021000000    -4.319000000     1.237000000
C    -5.242000000    -2.953000000     1.286000000
H    -5.340000000    -2.363000000     0.379000000
C    -4.989000000    -5.059000000     2.417000000
H    -4.755000000    -6.111000000     2.277000000
C    -5.373000000    -4.482000000     3.618000000
H    -5.524000000    -4.996000000     4.564000000
C    -5.612000000    -3.097000000     3.692000000
H    -5.683000000    -2.643000000     4.677000000
C    -5.633000000    -2.331000000     2.506000000
O    -5.935000000    -1.024000000     2.648000000
C    -4.912000000    -0.159000000     2.854000000
C    -5.216000000     1.196000000     2.991000000
H    -6.131000000     1.641000000     2.609000000
C    -4.237000000     2.072000000     3.376000000
O    -4.671000000     3.392000000     3.502000000
C    -3.925000000     4.560000000     3.583000000
C    -4.161000000     5.296000000     4.741000000
H    -4.953000000     5.002000000     5.424000000
C    -3.515000000     6.507000000     4.931000000
H    -3.784000000     7.009000000     5.857000000
C    -2.703000000     7.025000000     3.894000000
H    -2.411000000     8.069000000     3.970000000
C    -2.454000000     6.262000000     2.748000000
C    -3.019000000     4.993000000     2.619000000
H    -3.160000000     4.500000000     1.660000000
C    -2.388000000     0.704000000     0.120000000
H    -3.098000000     1.387000000     0.579000000
C    -1.046000000     0.860000000     0.371000000
H    -0.735000000     1.754000000     0.904000000
C    -0.099000000     0.044000000    -0.307000000
H     0.927000000     0.205000000    -0.109000000
C    -0.478000000    -0.888000000    -1.275000000
H     0.191000000    -1.515000000    -1.859000000
C    -1.886000000    -1.015000000    -1.551000000
H    -2.199000000    -1.620000000    -2.399000000
C    -2.785000000    -0.233000000    -0.875000000
C    -4.307000000    -0.264000000    -1.243000000
O    -4.708000000    -0.942000000    -2.223000000
O    -5.034000000     0.584000000    -0.740000000
O    -9.407000000    -3.916000000     0.688000000
H    -9.084000000    -4.343000000     1.482000000
H    -8.804000000    -4.199000000     0.001000000
O    -4.118000000     2.596000000    -3.545000000
H    -4.712000000     1.886000000    -3.791000000
H    -3.323000000     2.429000000    -4.052000000
O    -9.014000000    -0.829000000     3.948000000
H    -8.855000000    -0.983000000     3.017000000
H    -8.143000000    -0.837000000     4.344000000
O    -7.173000000    -2.875000000    -5.298000000
H    -6.951000000    -2.866000000    -4.367000000
H    -6.372000000    -3.166000000    -5.733000000
O    -6.996000000     3.359000000    -5.093000000
H    -6.930000000     2.999000000    -4.208000000
H    -7.054000000     2.590000000    -5.661000000
O    -4.899000000    -3.136000000    -7.105000000
H    -4.053000000    -2.693000000    -7.045000000
H    -5.448000000    -2.537000000    -7.611000000
O    -5.627000000     0.190000000    -4.361000000
H    -5.166000000    -0.349000000    -3.718000000
H    -6.554000000     0.071000000    -4.153000000
O    -9.147000000    -1.095000000     1.309000000
H    -9.093000000    -2.051000000     1.300000000
H   -10.079000000    -0.909000000     1.423000000
O    -9.505000000    -1.270000000    -1.645000000
H   -10.248000000    -0.691000000    -1.817000000
H    -9.486000000    -1.358000000    -0.692000000
O    -7.040000000    -2.217000000    -2.623000000
H    -6.207000000    -1.789000000    -2.426000000
H    -7.692000000    -1.703000000    -2.147000000
O    -2.726000000     5.661000000    -4.969000000
H    -2.303000000     5.461000000    -5.804000000
H    -3.087000000     4.824000000    -4.678000000
O    -8.816000000     2.978000000     2.211000000
H    -9.182000000     3.544000000     1.531000000
H    -8.464000000     2.227000000     1.735000000
O    -4.564000000     3.112000000    -0.754000000
H    -4.327000000     3.292000000    -1.664000000
H    -4.693000000     2.165000000    -0.723000000
O    -8.659000000    -0.689000000    -4.440000000
H    -9.029000000    -0.702000000    -3.557000000
H    -8.463000000    -1.606000000    -4.632000000
O    -6.471000000     5.185000000     0.846000000
H    -7.328000000     4.903000000     0.526000000
H    -5.849000000     4.600000000     0.413000000
O    -7.136000000     3.413000000    -1.749000000
H    -6.183000000     3.475000000    -1.679000000
H    -7.374000000     2.703000000    -1.153000000
O    -4.816000000    -0.200000000    -6.890000000
H    -5.566000000     0.239000000    -7.289000000
H    -4.946000000    -0.088000000    -5.948000000
O    -7.595000000     1.163000000     0.500000000
H    -6.680000000     1.015000000     0.264000000
H    -7.890000000     0.325000000     0.856000000
O    -7.865000000    -4.485000000    -1.559000000
H    -7.598000000    -3.623000000    -1.877000000
H    -8.430000000    -4.831000000    -2.250000000
