215
-1492.40983
C     0.911000000    -0.834000000    -4.594000000
H     0.905000000    -1.805000000    -4.107000000
C     1.856000000     0.122000000    -4.187000000
C     1.806000000     1.437000000    -4.718000000
H     2.504000000     2.199000000    -4.380000000
C     2.854000000    -0.191000000    -2.985000000
O     3.377000000    -1.551000000    -3.026000000
H     2.229000000     0.044000000    -2.111000000
O     4.078000000     0.677000000    -2.924000000
C     4.248000000     1.065000000    -1.663000000
C     3.631000000     2.259000000    -1.393000000
H     3.129000000     2.864000000    -2.143000000
C     3.615000000     2.702000000    -0.048000000
O     3.021000000     3.860000000     0.223000000
C     4.213000000     1.907000000     0.979000000
C     4.354000000     2.409000000     2.420000000
H     5.250000000     2.004000000     2.895000000
C     3.136000000     2.031000000     3.147000000
C     3.091000000     0.809000000     3.826000000
H     4.017000000     0.255000000     3.955000000
H     4.514000000     3.489000000     2.445000000
C     4.866000000     0.765000000     0.592000000
H     5.277000000     0.035000000     1.285000000
C     4.823000000     0.279000000    -0.696000000
C     5.381000000    -1.121000000    -0.986000000
H     6.172000000    -1.170000000    -0.234000000
H     5.884000000    -1.186000000    -1.953000000
C     4.291000000    -2.185000000    -0.898000000
C     4.127000000    -2.930000000     0.286000000
H     4.834000000    -2.831000000     1.106000000
C     3.330000000    -2.378000000    -1.917000000
C     2.322000000    -3.370000000    -1.779000000
H     1.613000000    -3.416000000    -2.602000000
C     2.180000000    -4.130000000    -0.637000000
O     1.128000000    -4.969000000    -0.602000000
C    -0.025000000    -4.587000000     0.115000000
C    -1.259000000    -4.902000000    -0.660000000
C    -2.433000000    -5.027000000     0.071000000
H    -2.331000000    -5.019000000     1.153000000
C    -1.291000000    -5.031000000    -2.066000000
H    -0.345000000    -5.063000000    -2.601000000
O    -0.013000000    -4.995000000     1.458000000
H    -0.046000000    -3.489000000     0.165000000
C     3.085000000    -3.859000000     0.441000000
C     2.875000000    -4.641000000     1.758000000
H     3.805000000    -4.698000000     2.328000000
H     2.479000000    -5.615000000     1.464000000
C     1.836000000    -3.900000000     2.553000000
C     2.260000000    -2.906000000     3.467000000
H     3.293000000    -2.589000000     3.588000000
C     0.430000000    -4.096000000     2.419000000
C    -0.488000000    -3.328000000     3.069000000
H    -1.539000000    -3.398000000     2.802000000
C    -0.022000000    -2.362000000     4.041000000
O    -0.881000000    -1.501000000     4.659000000
C    -1.085000000    -0.259000000     3.886000000
C    -2.605000000     0.050000000     3.730000000
C    -3.542000000    -0.891000000     3.378000000
H    -3.187000000    -1.916000000     3.298000000
C    -3.032000000     1.406000000     3.665000000
H    -2.268000000     2.166000000     3.805000000
O    -0.495000000     0.788000000     4.702000000
H    -0.555000000    -0.262000000     2.923000000
C     1.348000000    -2.132000000     4.192000000
C     1.860000000    -1.014000000     5.049000000
H     2.849000000    -1.268000000     5.435000000
H     1.316000000    -0.874000000     5.985000000
C     1.870000000     0.317000000     4.327000000
C     0.726000000     1.205000000     4.367000000
C     0.852000000     2.483000000     3.774000000
H     0.019000000     3.182000000     3.771000000
C     1.978000000     2.821000000     3.071000000
O     1.947000000     4.014000000     2.310000000
C     1.709000000     3.839000000     0.902000000
H     1.243000000     2.849000000     0.792000000
C     0.769000000     4.814000000     0.330000000
C     0.821000000     5.188000000    -0.991000000
H     1.597000000     4.849000000    -1.672000000
C    -0.228000000     5.353000000     1.203000000
H    -0.194000000     5.166000000     2.273000000
C    -1.232000000     6.181000000     0.689000000
O    -2.168000000     6.703000000     1.513000000
C    -1.145000000     6.512000000    -0.682000000
H    -1.806000000     7.274000000    -1.087000000
C    -0.127000000     6.061000000    -1.530000000
O    -0.090000000     6.456000000    -2.889000000
C     0.725000000     5.928000000    -3.916000000
C     0.492000000     4.719000000    -4.488000000
H    -0.305000000     4.078000000    -4.119000000
C     1.821000000     6.704000000    -4.312000000
H     2.110000000     7.640000000    -3.843000000
C     2.646000000     6.161000000    -5.273000000
H     3.536000000     6.671000000    -5.634000000
C     2.399000000     4.958000000    -5.934000000
H     2.997000000     4.566000000    -6.753000000
C     1.259000000     4.235000000    -5.569000000
O     0.894000000     3.067000000    -6.210000000
C     0.878000000     1.781000000    -5.666000000
C    -0.119000000     0.902000000    -6.050000000
H    -0.898000000     1.142000000    -6.769000000
C    -0.047000000    -0.417000000    -5.524000000
O    -0.948000000    -1.304000000    -6.007000000
C    -0.904000000    -2.680000000    -5.971000000
C    -1.650000000    -3.359000000    -4.998000000
H    -2.243000000    -2.812000000    -4.270000000
C    -0.238000000    -3.419000000    -6.948000000
H     0.339000000    -2.866000000    -7.684000000
C    -0.387000000    -4.867000000    -6.945000000
H     0.000000000    -5.501000000    -7.738000000
C    -1.140000000    -5.500000000    -6.008000000
H    -1.464000000    -6.527000000    -6.158000000
C    -1.708000000    -4.742000000    -4.951000000
O    -2.545000000    -5.388000000    -4.024000000
C    -2.468000000    -5.249000000    -2.684000000
C    -3.670000000    -5.274000000    -1.950000000
H    -4.580000000    -5.459000000    -2.515000000
C    -3.642000000    -5.177000000    -0.560000000
O    -4.853000000    -5.355000000     0.085000000
C    -5.227000000    -4.752000000     1.292000000
C    -5.501000000    -3.420000000     1.387000000
H    -5.527000000    -2.821000000     0.480000000
C    -5.206000000    -5.567000000     2.455000000
H    -4.962000000    -6.602000000     2.233000000
C    -5.340000000    -4.967000000     3.724000000
H    -5.198000000    -5.586000000     4.607000000
C    -5.543000000    -3.605000000     3.789000000
H    -5.524000000    -3.178000000     4.789000000
C    -5.624000000    -2.857000000     2.625000000
O    -5.815000000    -1.493000000     2.774000000
C    -4.862000000    -0.515000000     3.098000000
C    -5.280000000     0.803000000     3.184000000
H    -6.339000000     1.029000000     3.091000000
C    -4.328000000     1.776000000     3.410000000
O    -4.724000000     3.131000000     3.446000000
C    -3.838000000     4.200000000     3.612000000
C    -3.673000000     4.803000000     4.872000000
H    -4.139000000     4.361000000     5.749000000
C    -2.815000000     5.874000000     4.989000000
H    -2.637000000     6.303000000     5.972000000
C    -2.357000000     6.564000000     3.867000000
H    -1.873000000     7.531000000     3.980000000
C    -2.609000000     5.999000000     2.604000000
C    -3.294000000     4.816000000     2.476000000
H    -3.563000000     4.352000000     1.530000000
C    -1.767000000     0.920000000     0.372000000
H    -2.578000000     1.510000000     0.791000000
C    -0.543000000     1.076000000     0.946000000
H    -0.335000000     1.820000000     1.711000000
C     0.535000000     0.239000000     0.563000000
H     1.436000000     0.308000000     1.089000000
C     0.262000000    -0.797000000    -0.254000000
H     1.017000000    -1.552000000    -0.458000000
C    -0.983000000    -0.873000000    -0.904000000
H    -1.254000000    -1.723000000    -1.525000000
C    -2.033000000    -0.037000000    -0.581000000
C    -3.390000000    -0.295000000    -1.113000000
O    -3.503000000    -0.994000000    -2.095000000
O    -4.410000000     0.392000000    -0.766000000
O    -2.637000000     5.931000000    -3.816000000
H    -1.829000000     6.269000000    -3.431000000
H    -2.397000000     5.070000000    -4.160000000
O    -3.231000000     0.097000000    -4.381000000
H    -4.172000000     0.237000000    -4.280000000
H    -2.992000000    -0.466000000    -3.644000000
O    -7.116000000    -1.860000000    -5.601000000
H    -7.312000000    -1.685000000    -4.681000000
H    -6.177000000    -2.049000000    -5.614000000
O    -8.826000000     1.204000000    -2.249000000
H    -8.045000000     1.697000000    -1.998000000
H    -9.462000000     1.874000000    -2.499000000
O    -6.044000000     2.852000000    -4.548000000
H    -5.888000000     3.589000000    -3.957000000
H    -5.973000000     2.078000000    -3.990000000
O    -4.204000000    -2.037000000    -6.605000000
H    -3.602000000    -1.520000000    -6.070000000
H    -4.742000000    -1.387000000    -7.056000000
O    -5.695000000     0.621000000    -3.012000000
H    -5.279000000     0.400000000    -2.178000000
H    -6.297000000    -0.104000000    -3.179000000
O    -8.541000000    -1.922000000    -0.386000000
H    -8.801000000    -2.843000000    -0.375000000
H    -9.338000000    -1.445000000    -0.154000000
O    -7.761000000    -1.222000000    -2.973000000
H    -7.716000000    -1.519000000    -2.064000000
H    -8.266000000    -0.410000000    -2.934000000
O    -5.064000000    -2.952000000    -3.538000000
H    -4.183000000    -3.310000000    -3.641000000
H    -4.997000000    -2.366000000    -2.783000000
O    -2.485000000     2.781000000    -4.449000000
H    -2.028000000     3.116000000    -5.221000000
H    -2.378000000     1.831000000    -4.501000000
O    -9.051000000     3.089000000     0.549000000
H    -9.329000000     3.353000000     1.426000000
H    -8.588000000     2.263000000     0.683000000
O    -3.733000000     2.875000000    -1.229000000
H    -3.075000000     2.831000000    -1.923000000
H    -4.145000000     2.011000000    -1.235000000
O    -5.773000000     3.851000000     0.486000000
H    -6.083000000     2.954000000     0.606000000
H    -5.025000000     3.770000000    -0.106000000
O    -7.765000000     4.599000000    -1.423000000
H    -6.883000000     4.530000000    -1.060000000
H    -8.311000000     4.084000000    -0.829000000
O    -3.487000000     2.248000000    -6.968000000
H    -3.126000000     3.124000000    -6.831000000
H    -3.533000000     1.868000000    -6.091000000
O    -5.108000000     5.274000000    -2.464000000
H    -4.638000000     4.454000000    -2.314000000
H    -4.463000000     5.850000000    -2.874000000
O    -6.864000000     1.167000000     0.228000000
H    -6.052000000     0.743000000    -0.049000000
H    -7.455000000     0.443000000     0.432000000
O    -7.242000000    -4.524000000    -3.338000000
H    -6.526000000    -3.889000000    -3.338000000
H    -8.007000000    -4.023000000    -3.623000000
