215
-1461.91589
C     0.493000000    -1.100000000    -4.704000000
H     0.456000000    -2.098000000    -4.275000000
C     1.530000000    -0.218000000    -4.352000000
C     1.576000000     1.047000000    -5.038000000
H     2.410000000     1.707000000    -4.811000000
C     2.501000000    -0.694000000    -3.207000000
O     2.939000000    -2.085000000    -3.342000000
H     1.984000000    -0.685000000    -2.236000000
O     3.650000000     0.133000000    -3.229000000
C     3.986000000     0.694000000    -2.043000000
C     3.516000000     2.008000000    -1.688000000
H     2.941000000     2.470000000    -2.485000000
C     3.639000000     2.520000000    -0.418000000
O     3.122000000     3.698000000    -0.144000000
C     4.419000000     1.848000000     0.553000000
C     4.653000000     2.321000000     2.001000000
H     5.595000000     1.949000000     2.411000000
C     3.490000000     1.995000000     2.846000000
C     3.477000000     0.762000000     3.500000000
H     4.282000000     0.065000000     3.284000000
H     4.849000000     3.391000000     2.088000000
C     4.970000000     0.590000000     0.142000000
H     5.641000000     0.087000000     0.833000000
C     4.708000000    -0.017000000    -1.082000000
C     5.082000000    -1.408000000    -1.344000000
H     5.964000000    -1.638000000    -0.742000000
H     5.505000000    -1.428000000    -2.351000000
C     3.943000000    -2.485000000    -1.140000000
C     3.917000000    -3.093000000     0.067000000
H     4.697000000    -2.931000000     0.807000000
C     3.086000000    -2.867000000    -2.125000000
C     2.148000000    -3.809000000    -1.829000000
H     1.321000000    -4.032000000    -2.499000000
C     2.087000000    -4.473000000    -0.569000000
O     0.950000000    -5.227000000    -0.351000000
C    -0.077000000    -4.534000000     0.316000000
C    -1.429000000    -4.814000000    -0.372000000
C    -2.662000000    -4.741000000     0.270000000
H    -2.679000000    -4.508000000     1.332000000
C    -1.480000000    -5.132000000    -1.718000000
H    -0.530000000    -5.252000000    -2.233000000
O    -0.083000000    -4.808000000     1.745000000
H     0.021000000    -3.454000000     0.127000000
C     2.969000000    -4.109000000     0.398000000
C     2.917000000    -4.669000000     1.787000000
H     3.860000000    -4.821000000     2.316000000
H     2.425000000    -5.644000000     1.754000000
C     1.955000000    -3.837000000     2.653000000
C     2.494000000    -2.804000000     3.476000000
H     3.577000000    -2.736000000     3.537000000
C     0.588000000    -4.003000000     2.638000000
C    -0.245000000    -3.263000000     3.496000000
H    -1.317000000    -3.365000000     3.348000000
C     0.294000000    -2.203000000     4.222000000
O    -0.620000000    -1.336000000     4.677000000
C    -0.648000000    -0.004000000     4.171000000
C    -2.026000000     0.487000000     4.061000000
C    -3.049000000    -0.279000000     3.478000000
H    -2.821000000    -1.303000000     3.193000000
C    -2.453000000     1.782000000     4.443000000
H    -1.820000000     2.456000000     5.014000000
O     0.085000000     0.841000000     4.996000000
H    -0.175000000    -0.023000000     3.178000000
C     1.672000000    -2.001000000     4.237000000
C     2.378000000    -0.924000000     5.025000000
H     3.423000000    -1.144000000     5.255000000
H     1.894000000    -0.827000000     5.999000000
C     2.374000000     0.420000000     4.287000000
C     1.259000000     1.300000000     4.407000000
C     1.226000000     2.490000000     3.663000000
H     0.333000000     3.103000000     3.744000000
C     2.372000000     2.855000000     2.894000000
O     2.173000000     3.909000000     2.036000000
C     1.911000000     3.671000000     0.621000000
H     1.507000000     2.649000000     0.582000000
C     0.800000000     4.642000000     0.110000000
C     0.509000000     4.783000000    -1.282000000
H     1.082000000     4.286000000    -2.060000000
C    -0.052000000     5.304000000     1.000000000
H     0.017000000     5.242000000     2.083000000
C    -1.129000000     6.035000000     0.518000000
O    -1.922000000     6.667000000     1.441000000
C    -1.424000000     6.171000000    -0.821000000
H    -2.188000000     6.845000000    -1.201000000
C    -0.563000000     5.531000000    -1.714000000
O    -0.928000000     5.705000000    -3.025000000
C    -0.112000000     5.428000000    -4.139000000
C    -0.165000000     4.157000000    -4.730000000
H    -0.778000000     3.409000000    -4.235000000
C     0.795000000     6.346000000    -4.751000000
H     0.795000000     7.364000000    -4.370000000
C     1.606000000     6.013000000    -5.852000000
H     2.404000000     6.698000000    -6.129000000
C     1.441000000     4.769000000    -6.418000000
H     2.221000000     4.554000000    -7.143000000
C     0.604000000     3.893000000    -5.851000000
O     0.564000000     2.603000000    -6.465000000
C     0.530000000     1.398000000    -5.869000000
C    -0.472000000     0.518000000    -6.123000000
H    -1.239000000     0.772000000    -6.850000000
C    -0.529000000    -0.749000000    -5.537000000
O    -1.500000000    -1.649000000    -5.917000000
C    -1.326000000    -3.002000000    -5.722000000
C    -2.023000000    -3.635000000    -4.761000000
H    -2.638000000    -3.032000000    -4.098000000
C    -0.696000000    -3.737000000    -6.701000000
H    -0.168000000    -3.266000000    -7.526000000
C    -0.556000000    -5.097000000    -6.557000000
H     0.022000000    -5.640000000    -7.301000000
C    -1.162000000    -5.764000000    -5.503000000
H    -1.088000000    -6.838000000    -5.352000000
C    -1.951000000    -5.032000000    -4.604000000
O    -2.741000000    -5.610000000    -3.669000000
C    -2.706000000    -5.275000000    -2.343000000
C    -3.905000000    -5.220000000    -1.692000000
H    -4.814000000    -5.361000000    -2.271000000
C    -3.871000000    -4.980000000    -0.345000000
O    -5.077000000    -4.921000000     0.376000000
C    -5.209000000    -4.117000000     1.504000000
C    -5.223000000    -2.707000000     1.398000000
H    -5.164000000    -2.298000000     0.393000000
C    -5.311000000    -4.693000000     2.766000000
H    -5.390000000    -5.776000000     2.813000000
C    -5.401000000    -3.891000000     3.913000000
H    -5.624000000    -4.252000000     4.914000000
C    -5.483000000    -2.469000000     3.794000000
H    -5.575000000    -1.778000000     4.627000000
C    -5.342000000    -1.887000000     2.552000000
O    -5.173000000    -0.491000000     2.368000000
C    -4.280000000     0.222000000     3.080000000
C    -4.624000000     1.509000000     3.510000000
H    -5.649000000     1.867000000     3.478000000
C    -3.708000000     2.249000000     4.156000000
O    -4.115000000     3.556000000     4.500000000
C    -3.363000000     4.674000000     4.199000000
C    -2.717000000     5.229000000     5.267000000
H    -2.901000000     4.847000000     6.268000000
C    -1.815000000     6.229000000     5.103000000
H    -1.363000000     6.667000000     5.990000000
C    -1.610000000     6.762000000     3.852000000
H    -0.993000000     7.633000000     3.648000000
C    -2.241000000     6.266000000     2.755000000
C    -3.013000000     5.166000000     2.936000000
H    -3.504000000     4.748000000     2.060000000
C    -1.991000000     0.736000000     0.149000000
H    -2.808000000     1.452000000     0.176000000
C    -0.868000000     1.096000000     0.878000000
H    -0.837000000     1.945000000     1.556000000
C     0.248000000     0.215000000     0.845000000
H     1.131000000     0.470000000     1.270000000
C     0.286000000    -0.892000000    -0.050000000
H     1.189000000    -1.475000000    -0.210000000
C    -0.864000000    -1.129000000    -0.813000000
H    -1.025000000    -2.049000000    -1.369000000
C    -1.983000000    -0.347000000    -0.731000000
C    -3.280000000    -0.650000000    -1.477000000
O    -3.293000000    -1.399000000    -2.446000000
O    -4.232000000     0.109000000    -1.447000000
O    -4.780000000     5.821000000    -4.447000000
H    -3.898000000     6.115000000    -4.219000000
H    -4.641000000     5.062000000    -5.013000000
O    -3.674000000    -0.132000000    -4.714000000
H    -3.517000000    -0.354000000    -3.796000000
H    -2.955000000    -0.550000000    -5.188000000
O    -8.750000000     0.669000000    -4.743000000
H    -9.261000000     0.816000000    -3.947000000
H    -7.903000000     0.354000000    -4.428000000
O    -9.494000000    -0.813000000    -0.820000000
H   -10.318000000    -1.073000000    -0.409000000
H    -9.375000000     0.101000000    -0.560000000
O    -5.941000000    -0.006000000    -6.207000000
H    -5.241000000     0.016000000    -5.555000000
H    -6.137000000     0.914000000    -6.381000000
O    -6.343000000     0.448000000    -2.991000000
H    -5.469000000     0.283000000    -2.637000000
H    -6.707000000     1.126000000    -2.422000000
O    -6.104000000    -4.246000000    -5.581000000
H    -6.647000000    -3.670000000    -6.119000000
H    -5.844000000    -3.703000000    -4.836000000
O    -8.353000000    -0.959000000     1.964000000
H    -8.067000000    -1.839000000     1.722000000
H    -8.520000000    -0.523000000     1.129000000
O    -8.149000000    -3.199000000     0.439000000
H    -8.712000000    -2.648000000    -0.105000000
H    -7.662000000    -3.736000000    -0.187000000
O    -5.318000000    -2.689000000    -3.463000000
H    -5.676000000    -1.884000000    -3.838000000
H    -4.539000000    -2.404000000    -2.986000000
O    -3.562000000     2.577000000    -4.741000000
H    -2.960000000     3.030000000    -5.332000000
H    -3.389000000     1.647000000    -4.890000000
O    -9.416000000     1.781000000    -0.244000000
H    -9.800000000     2.416000000     0.361000000
H    -8.472000000     1.927000000    -0.176000000
O    -4.031000000     2.730000000    -1.972000000
H    -4.005000000     2.676000000    -2.927000000
H    -3.983000000     1.820000000    -1.679000000
O    -5.971000000     4.780000000    -0.966000000
H    -5.246000000     4.188000000    -1.168000000
H    -6.176000000     5.202000000    -1.800000000
O    -3.884000000    -5.278000000    -6.849000000
H    -4.707000000    -5.312000000    -6.362000000
H    -3.417000000    -4.529000000    -6.478000000
O    -6.520000000    -2.399000000    -7.632000000
H    -6.282000000    -1.605000000    -7.152000000
H    -5.897000000    -2.435000000    -8.359000000
O    -6.074000000     2.908000000    -6.202000000
H    -5.220000000     2.931000000    -5.772000000
H    -6.683000000     3.243000000    -5.544000000
O    -6.477000000     0.614000000     0.267000000
H    -5.629000000     0.488000000    -0.159000000
H    -6.316000000     0.405000000     1.187000000
O    -7.685000000    -3.402000000    -2.355000000
H    -6.760000000    -3.347000000    -2.592000000
H    -8.042000000    -2.544000000    -2.584000000
