215
-1454.07644
C     1.020000000    -1.249000000    -5.629000000
H     1.348000000    -2.282000000    -5.540000000
C     1.555000000    -0.357000000    -4.691000000
C     1.115000000     0.985000000    -4.642000000
H     1.508000000     1.655000000    -3.882000000
C     2.487000000    -0.879000000    -3.591000000
O     2.963000000    -2.251000000    -3.712000000
H     1.857000000    -0.768000000    -2.696000000
O     3.565000000     0.052000000    -3.345000000
C     3.977000000     0.465000000    -2.102000000
C     3.511000000     1.662000000    -1.678000000
H     2.963000000     2.356000000    -2.311000000
C     3.723000000     1.954000000    -0.332000000
O     3.241000000     3.114000000    -0.054000000
C     4.564000000     1.195000000     0.422000000
C     4.846000000     1.523000000     1.880000000
H     5.665000000     0.889000000     2.229000000
C     3.660000000     1.257000000     2.810000000
C     3.591000000     0.066000000     3.520000000
H     4.317000000    -0.715000000     3.310000000
H     5.217000000     2.544000000     1.988000000
C     5.035000000    -0.065000000    -0.032000000
H     5.601000000    -0.710000000     0.636000000
C     4.724000000    -0.401000000    -1.298000000
C     5.086000000    -1.837000000    -1.744000000
H     5.928000000    -2.144000000    -1.119000000
H     5.373000000    -1.824000000    -2.797000000
C     3.876000000    -2.914000000    -1.598000000
C     3.694000000    -3.614000000    -0.458000000
H     4.374000000    -3.479000000     0.379000000
C     2.926000000    -3.049000000    -2.637000000
C     1.801000000    -3.872000000    -2.510000000
H     1.095000000    -3.970000000    -3.331000000
C     1.602000000    -4.527000000    -1.333000000
O     0.386000000    -5.145000000    -1.137000000
C    -0.525000000    -4.307000000    -0.359000000
C    -1.959000000    -4.182000000    -1.004000000
C    -3.076000000    -3.917000000    -0.222000000
H    -2.864000000    -3.776000000     0.835000000
C    -2.152000000    -4.474000000    -2.361000000
H    -1.278000000    -4.671000000    -2.976000000
O    -0.566000000    -4.756000000     1.026000000
H    -0.068000000    -3.307000000    -0.337000000
C     2.585000000    -4.455000000    -0.305000000
C     2.314000000    -5.027000000     1.101000000
H     3.263000000    -5.282000000     1.577000000
H     1.795000000    -5.987000000     1.114000000
C     1.526000000    -4.092000000     1.982000000
C     2.199000000    -3.283000000     2.904000000
H     3.286000000    -3.280000000     2.918000000
C     0.151000000    -3.989000000     1.908000000
C    -0.581000000    -3.073000000     2.676000000
H    -1.660000000    -3.019000000     2.551000000
C     0.111000000    -2.306000000     3.632000000
O    -0.666000000    -1.523000000     4.446000000
C    -0.630000000    -0.002000000     4.422000000
C    -2.009000000     0.653000000     4.450000000
C    -2.969000000     0.198000000     3.544000000
H    -2.796000000    -0.741000000     3.024000000
C    -2.200000000     1.936000000     5.082000000
H    -1.465000000     2.408000000     5.729000000
O     0.378000000     0.605000000     5.252000000
H    -0.331000000     0.373000000     3.432000000
C     1.514000000    -2.475000000     3.781000000
C     2.222000000    -1.594000000     4.865000000
H     3.167000000    -2.009000000     5.223000000
H     1.629000000    -1.513000000     5.779000000
C     2.522000000    -0.182000000     4.373000000
C     1.591000000     0.869000000     4.612000000
C     1.675000000     2.067000000     3.957000000
H     0.817000000     2.734000000     3.933000000
C     2.627000000     2.188000000     2.931000000
O     2.582000000     3.299000000     2.196000000
C     2.151000000     3.193000000     0.880000000
H     1.516000000     2.298000000     0.807000000
C     1.244000000     4.393000000     0.574000000
C     1.162000000     4.876000000    -0.757000000
H     1.786000000     4.439000000    -1.532000000
C     0.405000000     4.956000000     1.596000000
H     0.477000000     4.516000000     2.588000000
C    -0.484000000     5.978000000     1.349000000
O    -1.299000000     6.587000000     2.282000000
C    -0.572000000     6.425000000     0.040000000
H    -1.376000000     7.113000000    -0.208000000
C     0.149000000     5.847000000    -1.014000000
O    -0.253000000     6.263000000    -2.262000000
C     0.253000000     5.608000000    -3.376000000
C    -0.491000000     4.553000000    -3.972000000
H    -1.412000000     4.133000000    -3.576000000
C     1.459000000     6.027000000    -3.829000000
H     2.023000000     6.823000000    -3.349000000
C     2.031000000     5.384000000    -4.976000000
H     2.936000000     5.799000000    -5.412000000
C     1.396000000     4.221000000    -5.450000000
H     1.708000000     3.778000000    -6.393000000
C     0.211000000     3.813000000    -4.918000000
O    -0.408000000     2.708000000    -5.515000000
C     0.072000000     1.445000000    -5.498000000
C    -0.505000000     0.523000000    -6.381000000
H    -1.352000000     0.689000000    -7.041000000
C    -0.089000000    -0.846000000    -6.362000000
O    -0.872000000    -1.758000000    -6.988000000
C    -1.222000000    -3.001000000    -6.527000000
C    -2.297000000    -3.158000000    -5.680000000
H    -2.879000000    -2.280000000    -5.412000000
C    -0.527000000    -4.165000000    -6.968000000
H     0.363000000    -4.080000000    -7.586000000
C    -0.802000000    -5.433000000    -6.383000000
H    -0.171000000    -6.293000000    -6.589000000
C    -1.898000000    -5.540000000    -5.569000000
H    -2.141000000    -6.477000000    -5.075000000
C    -2.597000000    -4.417000000    -5.205000000
O    -3.671000000    -4.484000000    -4.282000000
C    -3.468000000    -4.383000000    -2.912000000
C    -4.567000000    -4.056000000    -2.176000000
H    -5.522000000    -3.946000000    -2.684000000
C    -4.390000000    -4.006000000    -0.785000000
O    -5.499000000    -3.688000000    -0.032000000
C    -5.480000000    -3.088000000     1.252000000
C    -5.285000000    -1.721000000     1.266000000
H    -5.057000000    -1.063000000     0.432000000
C    -5.948000000    -3.703000000     2.416000000
H    -6.218000000    -4.756000000     2.428000000
C    -5.835000000    -3.073000000     3.654000000
H    -6.053000000    -3.543000000     4.609000000
C    -5.534000000    -1.751000000     3.737000000
H    -5.574000000    -1.244000000     4.697000000
C    -5.293000000    -1.086000000     2.527000000
O    -5.120000000     0.293000000     2.629000000
C    -4.160000000     0.893000000     3.363000000
C    -4.424000000     2.012000000     4.077000000
H    -5.363000000     2.500000000     3.827000000
C    -3.453000000     2.563000000     4.864000000
O    -3.646000000     3.764000000     5.447000000
C    -2.705000000     4.731000000     5.125000000
C    -2.010000000     5.373000000     6.173000000
H    -2.295000000     5.123000000     7.192000000
C    -1.009000000     6.351000000     5.948000000
H    -0.604000000     6.804000000     6.849000000
C    -0.733000000     6.792000000     4.618000000
H    -0.040000000     7.579000000     4.334000000
C    -1.514000000     6.167000000     3.601000000
C    -2.472000000     5.179000000     3.851000000
H    -3.057000000     4.775000000     3.028000000
C    -2.253000000     1.580000000     0.472000000
H    -2.904000000     2.418000000     0.708000000
C    -1.141000000     1.309000000     1.247000000
H    -0.816000000     1.960000000     2.054000000
C    -0.332000000     0.216000000     0.891000000
H     0.601000000     0.117000000     1.436000000
C    -0.582000000    -0.568000000    -0.175000000
H     0.098000000    -1.378000000    -0.425000000
C    -1.702000000    -0.302000000    -0.970000000
H    -1.897000000    -0.934000000    -1.832000000
C    -2.537000000     0.782000000    -0.639000000
C    -3.762000000     1.036000000    -1.521000000
O    -4.076000000     0.260000000    -2.407000000
O    -4.443000000     1.999000000    -1.189000000
O    -4.045000000     4.740000000    -7.416000000
H    -3.820000000     4.414000000    -6.545000000
H    -4.150000000     3.951000000    -7.948000000
O    -3.754000000     3.676000000    -4.904000000
H    -3.612000000     4.037000000    -4.029000000
H    -3.112000000     2.970000000    -4.979000000
O    -3.040000000     0.970000000    -4.975000000
H    -3.307000000     0.894000000    -4.059000000
H    -3.506000000     0.261000000    -5.419000000
O    -9.101000000     0.549000000    -0.638000000
H    -8.310000000     1.055000000    -0.451000000
H    -9.099000000     0.447000000    -1.590000000
O    -9.073000000     0.708000000    -4.513000000
H    -8.424000000     1.386000000    -4.326000000
H    -9.624000000     0.680000000    -3.731000000
O    -7.595000000     3.673000000    -1.681000000
H    -6.994000000     2.929000000    -1.677000000
H    -8.043000000     3.623000000    -0.836000000
O    -7.752000000     5.246000000    -3.878000000
H    -6.861000000     5.589000000    -3.952000000
H    -7.763000000     4.790000000    -3.036000000
O    -6.468000000     1.405000000    -3.503000000
H    -6.104000000     2.019000000    -4.140000000
H    -5.813000000     1.368000000    -2.806000000
O    -9.393000000    -2.792000000     0.581000000
H   -10.173000000    -2.331000000     0.891000000
H    -9.070000000    -2.256000000    -0.144000000
O    -4.722000000     6.298000000     1.655000000
H    -4.933000000     6.271000000     0.721000000
H    -4.408000000     7.190000000     1.803000000
O    -6.685000000    -0.836000000    -1.778000000
H    -6.831000000    -0.389000000    -0.944000000
H    -6.088000000    -0.260000000    -2.257000000
O    -6.221000000    -0.827000000    -5.069000000
H    -5.963000000    -1.519000000    -4.460000000
H    -6.512000000    -0.110000000    -4.506000000
O    -3.802000000     2.090000000    -8.469000000
H    -3.783000000     1.619000000    -9.302000000
H    -4.027000000     1.422000000    -7.821000000
O    -6.095000000     3.002000000    -5.809000000
H    -5.151000000     3.124000000    -5.709000000
H    -6.479000000     3.796000000    -5.436000000
O    -5.892000000     6.336000000    -0.860000000
H    -6.192000000     5.525000000    -1.269000000
H    -6.516000000     6.999000000    -1.157000000
O    -3.339000000     4.442000000    -2.260000000
H    -3.749000000     5.167000000    -1.788000000
H    -3.633000000     3.658000000    -1.798000000
O    -4.871000000    -0.473000000    -7.272000000
H    -5.324000000    -0.865000000    -8.018000000
H    -5.487000000    -0.563000000    -6.544000000
O    -6.904000000     1.729000000     0.023000000
H    -6.041000000     1.952000000    -0.325000000
H    -6.754000000     1.575000000     0.956000000
O    -7.751000000    -2.914000000    -3.338000000
H    -7.221000000    -2.276000000    -2.861000000
H    -8.501000000    -3.079000000    -2.767000000
