215
-1454.47010
C     0.873000000    -0.875000000    -5.577000000
H     0.943000000    -1.955000000    -5.480000000
C     1.507000000    -0.071000000    -4.644000000
C     1.501000000     1.275000000    -4.839000000
H     2.007000000     1.950000000    -4.155000000
C     2.231000000    -0.731000000    -3.421000000
O     2.521000000    -2.062000000    -3.647000000
H     1.569000000    -0.720000000    -2.543000000
O     3.493000000    -0.040000000    -3.114000000
C     4.028000000     0.151000000    -1.870000000
C     3.858000000     1.415000000    -1.333000000
H     3.558000000     2.225000000    -1.994000000
C     4.196000000     1.651000000    -0.009000000
O     3.990000000     2.944000000     0.465000000
C     4.854000000     0.642000000     0.754000000
C     5.256000000     0.905000000     2.227000000
H     6.031000000     0.226000000     2.587000000
C     3.995000000     0.685000000     3.153000000
C     3.636000000    -0.573000000     3.562000000
H     4.270000000    -1.416000000     3.302000000
H     5.657000000     1.899000000     2.437000000
C     5.019000000    -0.609000000     0.208000000
H     5.462000000    -1.357000000     0.862000000
C     4.567000000    -0.893000000    -1.104000000
C     4.731000000    -2.299000000    -1.691000000
H     5.543000000    -2.921000000    -1.309000000
H     5.054000000    -2.212000000    -2.731000000
C     3.339000000    -3.049000000    -1.572000000
C     3.141000000    -3.922000000    -0.477000000
H     3.852000000    -3.919000000     0.345000000
C     2.422000000    -2.975000000    -2.607000000
C     1.291000000    -3.735000000    -2.514000000
H     0.512000000    -3.588000000    -3.258000000
C     1.013000000    -4.502000000    -1.431000000
O    -0.248000000    -5.007000000    -1.330000000
C    -1.180000000    -4.240000000    -0.501000000
C    -2.565000000    -3.953000000    -1.135000000
C    -3.750000000    -4.017000000    -0.376000000
H    -3.686000000    -4.416000000     0.633000000
C    -2.701000000    -3.595000000    -2.456000000
H    -1.868000000    -3.476000000    -3.144000000
O    -1.306000000    -4.741000000     0.890000000
H    -0.781000000    -3.216000000    -0.446000000
C     1.956000000    -4.685000000    -0.402000000
C     1.656000000    -5.357000000     0.964000000
H     2.595000000    -5.769000000     1.338000000
H     1.008000000    -6.216000000     0.775000000
C     0.925000000    -4.405000000     1.901000000
C     1.701000000    -3.854000000     2.866000000
H     2.748000000    -4.118000000     2.994000000
C    -0.417000000    -4.141000000     1.787000000
C    -0.936000000    -3.231000000     2.700000000
H    -1.993000000    -2.976000000     2.693000000
C    -0.200000000    -2.594000000     3.642000000
O    -0.847000000    -1.715000000     4.469000000
C    -0.649000000    -0.323000000     4.134000000
C    -1.892000000     0.505000000     4.092000000
C    -2.980000000     0.034000000     3.316000000
H    -2.793000000    -0.829000000     2.682000000
C    -2.043000000     1.705000000     4.799000000
H    -1.303000000     2.104000000     5.489000000
O     0.307000000     0.092000000     5.120000000
H    -0.201000000    -0.285000000     3.130000000
C     1.145000000    -2.936000000     3.730000000
C     2.030000000    -2.214000000     4.782000000
H     2.915000000    -2.798000000     5.045000000
H     1.342000000    -2.220000000     5.629000000
C     2.451000000    -0.812000000     4.311000000
C     1.587000000     0.289000000     4.537000000
C     1.928000000     1.535000000     4.056000000
H     1.241000000     2.362000000     4.215000000
C     3.125000000     1.755000000     3.376000000
O     3.317000000     3.019000000     2.788000000
C     2.819000000     3.110000000     1.360000000
H     2.203000000     2.223000000     1.148000000
C     1.939000000     4.301000000     0.985000000
C     1.627000000     4.535000000    -0.357000000
H     2.085000000     3.964000000    -1.161000000
C     1.233000000     5.167000000     1.875000000
H     1.559000000     5.069000000     2.907000000
C     0.210000000     6.026000000     1.482000000
O    -0.802000000     6.550000000     2.382000000
C    -0.183000000     6.083000000     0.166000000
H    -1.070000000     6.679000000    -0.034000000
C     0.568000000     5.359000000    -0.745000000
O     0.077000000     5.407000000    -1.998000000
C     0.744000000     5.257000000    -3.183000000
C     0.410000000     4.247000000    -4.157000000
H    -0.448000000     3.587000000    -4.067000000
C     1.745000000     6.175000000    -3.422000000
H     2.029000000     6.978000000    -2.746000000
C     2.538000000     6.144000000    -4.601000000
H     3.310000000     6.872000000    -4.836000000
C     2.300000000     5.116000000    -5.535000000
H     2.713000000     5.232000000    -6.534000000
C     1.276000000     4.205000000    -5.242000000
O     0.981000000     3.235000000    -6.189000000
C     0.902000000     1.886000000    -5.946000000
C     0.085000000     1.081000000    -6.732000000
H    -0.412000000     1.486000000    -7.610000000
C     0.148000000    -0.302000000    -6.584000000
O    -0.769000000    -1.067000000    -7.321000000
C    -1.524000000    -2.126000000    -6.843000000
C    -2.456000000    -1.916000000    -5.798000000
H    -2.519000000    -0.951000000    -5.304000000
C    -1.367000000    -3.421000000    -7.450000000
H    -0.628000000    -3.644000000    -8.215000000
C    -2.142000000    -4.457000000    -6.913000000
H    -1.990000000    -5.455000000    -7.316000000
C    -3.024000000    -4.207000000    -5.810000000
H    -3.568000000    -5.083000000    -5.465000000
C    -3.157000000    -2.978000000    -5.262000000
O    -4.009000000    -2.758000000    -4.219000000
C    -3.951000000    -3.322000000    -2.982000000
C    -5.069000000    -3.330000000    -2.172000000
H    -6.035000000    -3.042000000    -2.579000000
C    -4.944000000    -3.681000000    -0.872000000
O    -6.007000000    -3.641000000     0.023000000
C    -5.805000000    -3.064000000     1.279000000
C    -5.641000000    -1.690000000     1.328000000
H    -5.605000000    -1.144000000     0.389000000
C    -5.751000000    -3.906000000     2.414000000
H    -5.943000000    -4.968000000     2.282000000
C    -5.609000000    -3.252000000     3.642000000
H    -5.445000000    -3.886000000     4.509000000
C    -5.416000000    -1.891000000     3.740000000
H    -5.388000000    -1.314000000     4.661000000
C    -5.464000000    -1.111000000     2.546000000
O    -5.285000000     0.284000000     2.634000000
C    -4.219000000     0.736000000     3.360000000
C    -4.331000000     1.944000000     4.104000000
H    -5.235000000     2.546000000     4.134000000
C    -3.265000000     2.439000000     4.747000000
O    -3.297000000     3.680000000     5.395000000
C    -2.320000000     4.656000000     5.105000000
C    -1.641000000     5.240000000     6.205000000
H    -1.889000000     4.904000000     7.209000000
C    -0.557000000     6.148000000     5.986000000
H     0.051000000     6.550000000     6.792000000
C    -0.247000000     6.605000000     4.726000000
H     0.538000000     7.345000000     4.594000000
C    -0.895000000     6.014000000     3.637000000
C    -1.886000000     5.036000000     3.812000000
H    -2.458000000     4.714000000     2.946000000
C    -1.456000000     1.902000000    -0.277000000
H    -1.802000000     2.917000000    -0.101000000
C    -0.535000000     1.287000000     0.703000000
H    -0.241000000     1.833000000     1.596000000
C     0.115000000     0.091000000     0.346000000
H     1.006000000    -0.208000000     0.934000000
C    -0.217000000    -0.570000000    -0.854000000
H     0.379000000    -1.401000000    -1.223000000
C    -1.299000000    -0.049000000    -1.636000000
H    -1.661000000    -0.608000000    -2.495000000
C    -1.948000000     1.150000000    -1.341000000
C    -2.859000000     1.661000000    -2.418000000
O    -3.073000000     1.035000000    -3.420000000
O    -3.594000000     2.608000000    -2.147000000
O    -2.905000000     5.159000000    -5.757000000
H    -2.753000000     5.273000000    -4.818000000
H    -3.098000000     4.227000000    -5.856000000
O    -3.039000000     2.589000000    -6.414000000
H    -3.210000000     2.000000000    -5.679000000
H    -3.014000000     2.016000000    -7.180000000
O    -6.694000000    -0.264000000    -1.710000000
H    -6.258000000    -0.301000000    -2.561000000
H    -6.531000000     0.625000000    -1.396000000
O    -5.156000000     5.161000000     1.205000000
H    -5.438000000     4.514000000     1.851000000
H    -5.483000000     4.825000000     0.371000000
O    -4.467000000     7.198000000    -6.237000000
H    -3.969000000     6.381000000    -6.215000000
H    -5.335000000     6.942000000    -6.550000000
O    -6.430000000     5.580000000    -2.422000000
H    -7.320000000     5.931000000    -2.456000000
H    -6.548000000     4.630000000    -2.391000000
O    -3.980000000     7.783000000    -2.719000000
H    -4.533000000     7.073000000    -2.393000000
H    -3.585000000     7.431000000    -3.517000000
O    -5.501000000     2.816000000    -4.065000000
H    -5.527000000     1.877000000    -4.249000000
H    -4.765000000     2.921000000    -3.462000000
O    -8.663000000     3.716000000    -0.007000000
H    -7.923000000     3.710000000    -0.615000000
H    -9.109000000     2.884000000    -0.167000000
O    -5.430000000    -0.067000000    -4.108000000
H    -4.518000000     0.062000000    -3.847000000
H    -5.407000000    -0.827000000    -4.689000000
O    -6.739000000    -1.819000000    -5.918000000
H    -6.862000000    -1.256000000    -6.683000000
H    -6.965000000    -1.263000000    -5.173000000
O    -1.505000000     4.654000000    -7.980000000
H    -1.929000000     4.911000000    -7.161000000
H    -1.798000000     3.755000000    -8.130000000
O    -6.087000000     3.127000000    -6.575000000
H    -5.517000000     2.926000000    -7.317000000
H    -5.508000000     3.103000000    -5.814000000
O    -3.170000000     4.949000000    -3.025000000
H    -2.229000000     4.832000000    -2.899000000
H    -3.560000000     4.147000000    -2.677000000
O    -8.145000000     3.579000000    -3.887000000
H    -8.693000000     2.817000000    -3.697000000
H    -7.279000000     3.213000000    -4.066000000
O    -3.308000000     0.955000000    -8.569000000
H    -2.664000000     0.331000000    -8.904000000
H    -3.863000000     1.154000000    -9.323000000
O    -6.024000000     2.271000000    -0.762000000
H    -5.280000000     2.467000000    -1.332000000
H    -5.696000000     2.430000000     0.123000000
O    -8.427000000    -2.394000000    -1.082000000
H    -7.989000000    -3.127000000    -0.649000000
H    -7.783000000    -1.686000000    -1.065000000
O    -6.801000000     3.036000000     2.168000000
H    -7.657000000     3.129000000     1.749000000
H    -6.980000000     3.144000000     3.102000000
