215
-1469.77359
C     1.058000000    -0.976000000    -5.068000000
H     0.709000000    -1.970000000    -4.799000000
C     2.214000000    -0.369000000    -4.577000000
C     2.573000000     0.930000000    -5.021000000
H     3.302000000     1.508000000    -4.459000000
C     2.912000000    -0.868000000    -3.317000000
O     3.062000000    -2.331000000    -3.450000000
H     2.265000000    -0.570000000    -2.479000000
O     4.203000000    -0.224000000    -3.071000000
C     4.489000000    -0.020000000    -1.700000000
C     4.316000000     1.291000000    -1.243000000
H     4.000000000     2.068000000    -1.935000000
C     4.527000000     1.607000000     0.060000000
O     4.090000000     2.893000000     0.511000000
C     4.895000000     0.633000000     1.016000000
C     4.944000000     0.897000000     2.580000000
H     5.578000000     0.120000000     3.013000000
C     3.706000000     0.813000000     3.437000000
C     3.262000000    -0.385000000     3.961000000
H     3.840000000    -1.305000000     3.914000000
H     5.398000000     1.876000000     2.746000000
C     5.011000000    -0.651000000     0.550000000
H     5.047000000    -1.463000000     1.272000000
C     4.751000000    -1.051000000    -0.805000000
C     4.938000000    -2.563000000    -1.159000000
H     5.583000000    -2.994000000    -0.391000000
H     5.443000000    -2.697000000    -2.118000000
C     3.631000000    -3.288000000    -1.248000000
C     3.193000000    -3.942000000    -0.105000000
H     3.867000000    -4.123000000     0.727000000
C     2.741000000    -3.063000000    -2.310000000
C     1.466000000    -3.702000000    -2.318000000
H     0.823000000    -3.772000000    -3.192000000
C     1.005000000    -4.354000000    -1.202000000
O    -0.349000000    -4.605000000    -1.243000000
C    -1.241000000    -3.824000000    -0.376000000
C    -2.574000000    -3.647000000    -1.159000000
C    -3.782000000    -3.467000000    -0.440000000
H    -3.744000000    -3.576000000     0.641000000
C    -2.588000000    -3.617000000    -2.565000000
H    -1.715000000    -4.022000000    -3.072000000
O    -1.355000000    -4.604000000     0.852000000
H    -0.916000000    -2.787000000    -0.206000000
C     1.864000000    -4.554000000    -0.117000000
C     1.516000000    -5.238000000     1.168000000
H     2.353000000    -5.662000000     1.727000000
H     0.861000000    -6.064000000     0.883000000
C     0.745000000    -4.301000000     2.053000000
C     1.459000000    -3.501000000     2.972000000
H     2.526000000    -3.650000000     3.115000000
C    -0.593000000    -3.981000000     1.868000000
C    -1.326000000    -3.119000000     2.686000000
H    -2.373000000    -2.895000000     2.498000000
C    -0.637000000    -2.447000000     3.727000000
O    -1.312000000    -1.529000000     4.453000000
C    -1.170000000    -0.092000000     4.106000000
C    -2.529000000     0.620000000     4.138000000
C    -3.739000000    -0.023000000     3.840000000
H    -3.649000000    -1.080000000     3.604000000
C    -2.476000000     1.985000000     4.396000000
H    -1.542000000     2.517000000     4.562000000
O    -0.193000000     0.505000000     4.975000000
H    -0.854000000    -0.014000000     3.055000000
C     0.792000000    -2.653000000     3.844000000
C     1.537000000    -1.876000000     4.974000000
H     2.306000000    -2.553000000     5.350000000
H     0.868000000    -1.743000000     5.826000000
C     2.015000000    -0.499000000     4.541000000
C     1.171000000     0.593000000     4.493000000
C     1.512000000     1.778000000     3.860000000
H     0.864000000     2.638000000     3.716000000
C     2.799000000     1.836000000     3.338000000
O     3.104000000     2.934000000     2.641000000
C     2.831000000     2.905000000     1.253000000
H     2.217000000     2.066000000     0.893000000
C     1.947000000     4.073000000     0.753000000
C     1.466000000     4.128000000    -0.538000000
H     1.895000000     3.388000000    -1.209000000
C     1.457000000     5.047000000     1.670000000
H     1.871000000     5.026000000     2.675000000
C     0.431000000     5.895000000     1.289000000
O    -0.029000000     6.732000000     2.288000000
C     0.013000000     5.960000000    -0.047000000
H    -0.667000000     6.715000000    -0.434000000
C     0.557000000     5.091000000    -0.924000000
O     0.210000000     5.155000000    -2.293000000
C     1.189000000     4.925000000    -3.316000000
C     1.167000000     3.825000000    -4.199000000
H     0.359000000     3.098000000    -4.230000000
C     2.275000000     5.827000000    -3.412000000
H     2.308000000     6.567000000    -2.617000000
C     3.057000000     5.857000000    -4.543000000
H     3.805000000     6.595000000    -4.822000000
C     2.943000000     4.846000000    -5.437000000
H     3.552000000     4.889000000    -6.337000000
C     2.046000000     3.800000000    -5.201000000
O     2.010000000     2.855000000    -6.207000000
C     1.807000000     1.560000000    -5.989000000
C     0.724000000     0.899000000    -6.506000000
H     0.127000000     1.534000000    -7.156000000
C     0.286000000    -0.353000000    -6.109000000
O    -0.791000000    -0.890000000    -6.808000000
C    -1.336000000    -2.143000000    -6.577000000
C    -2.475000000    -2.186000000    -5.756000000
H    -2.975000000    -1.291000000    -5.395000000
C    -0.821000000    -3.294000000    -7.156000000
H     0.071000000    -3.265000000    -7.776000000
C    -1.447000000    -4.508000000    -6.911000000
H    -1.014000000    -5.398000000    -7.361000000
C    -2.473000000    -4.600000000    -6.022000000
H    -2.936000000    -5.568000000    -5.846000000
C    -2.977000000    -3.410000000    -5.463000000
O    -4.014000000    -3.537000000    -4.535000000
C    -3.789000000    -3.402000000    -3.196000000
C    -4.961000000    -3.135000000    -2.492000000
H    -5.908000000    -3.048000000    -3.018000000
C    -4.923000000    -3.070000000    -1.095000000
O    -6.090000000    -2.752000000    -0.496000000
C    -6.149000000    -2.492000000     0.836000000
C    -6.085000000    -1.176000000     1.324000000
H    -5.999000000    -0.328000000     0.650000000
C    -6.328000000    -3.552000000     1.733000000
H    -6.189000000    -4.590000000     1.444000000
C    -6.355000000    -3.344000000     3.127000000
H    -6.601000000    -4.089000000     3.880000000
C    -6.348000000    -2.064000000     3.575000000
H    -6.482000000    -1.894000000     4.640000000
C    -6.144000000    -0.999000000     2.717000000
O    -6.050000000     0.226000000     3.298000000
C    -4.846000000     0.791000000     3.656000000
C    -4.829000000     2.163000000     3.735000000
H    -5.713000000     2.732000000     3.456000000
C    -3.612000000     2.755000000     4.138000000
O    -3.593000000     4.129000000     4.252000000
C    -2.501000000     4.932000000     4.368000000
C    -1.973000000     5.214000000     5.630000000
H    -2.372000000     4.730000000     6.518000000
C    -0.744000000     5.751000000     5.809000000
H    -0.262000000     5.780000000     6.783000000
C    -0.189000000     6.411000000     4.717000000
H     0.715000000     6.990000000     4.882000000
C    -0.685000000     6.203000000     3.427000000
C    -1.844000000     5.367000000     3.256000000
H    -2.248000000     5.143000000     2.271000000
C    -1.295000000     1.646000000    -0.236000000
H    -2.012000000     2.440000000    -0.043000000
C    -0.350000000     1.186000000     0.674000000
H    -0.283000000     1.721000000     1.618000000
C     0.402000000     0.053000000     0.454000000
H     1.165000000    -0.174000000     1.178000000
C     0.183000000    -0.637000000    -0.744000000
H     0.847000000    -1.486000000    -0.883000000
C    -0.757000000    -0.173000000    -1.669000000
H    -0.902000000    -0.683000000    -2.618000000
C    -1.491000000     1.015000000    -1.418000000
C    -2.530000000     1.464000000    -2.440000000
O    -2.660000000     0.861000000    -3.514000000
O    -3.340000000     2.277000000    -2.075000000
O    -1.651000000     3.868000000    -6.586000000
H    -1.253000000     4.376000000    -5.879000000
H    -2.378000000     3.406000000    -6.168000000
O    -3.677000000     2.076000000    -5.413000000
H    -3.316000000     1.554000000    -4.696000000
H    -4.108000000     1.437000000    -5.980000000
O    -7.638000000    -0.681000000    -1.547000000
H    -7.061000000    -1.281000000    -1.074000000
H    -7.100000000    -0.349000000    -2.266000000
O    -8.225000000     2.861000000    -6.075000000
H    -8.459000000     2.794000000    -5.150000000
H    -7.393000000     3.334000000    -6.078000000
O    -1.489000000     0.854000000    -9.195000000
H    -2.241000000     0.381000000    -9.551000000
H    -1.349000000     0.467000000    -8.331000000
O    -5.768000000     5.347000000     1.806000000
H    -5.301000000     4.704000000     1.274000000
H    -6.571000000     4.899000000     2.073000000
O    -4.483000000     6.320000000    -4.337000000
H    -5.044000000     5.581000000    -4.574000000
H    -3.644000000     5.920000000    -4.108000000
O    -5.507000000     7.769000000    -0.094000000
H    -6.234000000     7.797000000    -0.716000000
H    -5.647000000     6.962000000     0.401000000
O    -2.933000000     7.271000000    -1.669000000
H    -3.703000000     7.536000000    -1.167000000
H    -3.240000000     6.546000000    -2.214000000
O    -6.050000000     2.001000000    -2.406000000
H    -5.922000000     1.307000000    -3.053000000
H    -5.195000000     2.098000000    -1.986000000
O    -7.253000000     2.804000000    -0.031000000
H    -8.207000000     2.766000000     0.028000000
H    -7.044000000     2.338000000    -0.840000000
O    -5.261000000    -0.029000000    -3.676000000
H    -4.403000000    -0.159000000    -3.272000000
H    -5.064000000     0.219000000    -4.580000000
O    -0.544000000     5.158000000    -8.567000000
H    -0.863000000     4.572000000    -7.881000000
H    -0.951000000     4.831000000    -9.370000000
O    -5.765000000     3.569000000    -4.758000000
H    -4.921000000     3.416000000    -5.181000000
H    -5.705000000     3.101000000    -3.925000000
O    -2.460000000     4.624000000    -3.414000000
H    -1.574000000     4.792000000    -3.092000000
H    -2.759000000     3.867000000    -2.909000000
O    -8.031000000     4.745000000    -3.370000000
H    -7.345000000     4.268000000    -3.837000000
H    -8.687000000     4.079000000    -3.161000000
O    -5.631000000    -0.073000000    -6.573000000
H    -6.331000000    -0.726000000    -6.609000000
H    -5.589000000     0.282000000    -7.460000000
O    -1.057000000     8.946000000    -3.703000000
H    -0.223000000     9.196000000    -3.307000000
H    -1.441000000     8.326000000    -3.083000000
O    -4.400000000     3.394000000     0.203000000
H    -3.851000000     3.033000000    -0.493000000
H    -5.290000000     3.343000000    -0.143000000
