215
-1449.33776
C     1.312000000    -0.873000000    -5.179000000
H     1.562000000    -1.930000000    -5.200000000
C     1.973000000    -0.067000000    -4.246000000
C     1.666000000     1.288000000    -4.163000000
H     2.230000000     1.877000000    -3.444000000
C     2.847000000    -0.649000000    -3.201000000
O     3.142000000    -2.041000000    -3.405000000
H     2.188000000    -0.679000000    -2.321000000
O     4.140000000     0.005000000    -2.872000000
C     4.280000000     0.188000000    -1.527000000
C     4.109000000     1.469000000    -1.018000000
H     3.856000000     2.238000000    -1.744000000
C     4.219000000     1.736000000     0.365000000
O     3.863000000     3.001000000     0.828000000
C     4.596000000     0.728000000     1.220000000
C     4.692000000     0.995000000     2.674000000
H     5.253000000     0.200000000     3.170000000
C     3.360000000     0.894000000     3.421000000
C     3.080000000    -0.328000000     4.055000000
H     3.819000000    -1.123000000     4.106000000
H     5.255000000     1.923000000     2.796000000
C     4.811000000    -0.540000000     0.640000000
H     5.119000000    -1.326000000     1.325000000
C     4.756000000    -0.804000000    -0.681000000
C     5.082000000    -2.206000000    -1.219000000
H     5.859000000    -2.694000000    -0.626000000
H     5.522000000    -2.072000000    -2.210000000
C     3.815000000    -3.041000000    -1.294000000
C     3.393000000    -3.755000000    -0.177000000
H     4.006000000    -3.690000000     0.718000000
C     2.896000000    -2.859000000    -2.362000000
C     1.722000000    -3.593000000    -2.324000000
H     0.945000000    -3.389000000    -3.057000000
C     1.414000000    -4.394000000    -1.259000000
O     0.191000000    -5.035000000    -1.198000000
C    -0.827000000    -4.200000000    -0.542000000
C    -2.046000000    -3.969000000    -1.427000000
C    -3.230000000    -3.398000000    -0.868000000
H    -3.252000000    -3.066000000     0.167000000
C    -2.076000000    -4.105000000    -2.827000000
H    -1.189000000    -4.520000000    -3.298000000
O    -1.213000000    -4.659000000     0.805000000
H    -0.461000000    -3.201000000    -0.263000000
C     2.224000000    -4.459000000    -0.175000000
C     1.726000000    -5.120000000     1.158000000
H     2.628000000    -5.482000000     1.655000000
H     1.086000000    -5.973000000     0.923000000
C     0.813000000    -4.224000000     2.065000000
C     1.437000000    -3.432000000     3.054000000
H     2.490000000    -3.171000000     2.986000000
C    -0.536000000    -4.082000000     1.879000000
C    -1.307000000    -3.316000000     2.723000000
H    -2.391000000    -3.371000000     2.674000000
C    -0.684000000    -2.639000000     3.754000000
O    -1.475000000    -1.762000000     4.488000000
C    -1.328000000    -0.315000000     4.324000000
C    -2.651000000     0.357000000     4.365000000
C    -3.713000000    -0.068000000     3.545000000
H    -3.646000000    -0.961000000     2.929000000
C    -2.879000000     1.622000000     5.091000000
H    -2.074000000     2.045000000     5.686000000
O    -0.400000000     0.345000000     5.191000000
H    -0.855000000    -0.177000000     3.341000000
C     0.683000000    -2.663000000     3.955000000
C     1.417000000    -1.981000000     5.118000000
H     2.356000000    -2.459000000     5.406000000
H     0.808000000    -1.943000000     6.024000000
C     1.846000000    -0.574000000     4.647000000
C     0.898000000     0.538000000     4.748000000
C     1.264000000     1.776000000     4.281000000
H     0.491000000     2.528000000     4.418000000
C     2.462000000     1.962000000     3.572000000
O     2.720000000     3.141000000     2.892000000
C     2.548000000     3.059000000     1.436000000
H     2.089000000     2.088000000     1.200000000
C     1.631000000     4.102000000     0.858000000
C     1.962000000     4.837000000    -0.282000000
H     2.903000000     4.628000000    -0.785000000
C     0.468000000     4.464000000     1.595000000
H     0.244000000     3.899000000     2.497000000
C    -0.376000000     5.444000000     1.044000000
O    -1.598000000     5.795000000     1.668000000
C    -0.095000000     6.194000000    -0.115000000
H    -0.789000000     6.974000000    -0.416000000
C     1.135000000     5.896000000    -0.704000000
O     1.438000000     6.602000000    -1.789000000
C     1.839000000     5.933000000    -2.953000000
C     0.937000000     4.938000000    -3.393000000
H     0.039000000     4.685000000    -2.837000000
C     2.953000000     6.277000000    -3.718000000
H     3.585000000     7.116000000    -3.438000000
C     3.318000000     5.511000000    -4.860000000
H     4.230000000     5.674000000    -5.429000000
C     2.452000000     4.552000000    -5.291000000
H     2.658000000     4.013000000    -6.212000000
C     1.345000000     4.210000000    -4.545000000
O     0.458000000     3.228000000    -4.916000000
C     0.733000000     1.894000000    -5.009000000
C     0.090000000     1.129000000    -5.949000000
H    -0.655000000     1.458000000    -6.670000000
C     0.311000000    -0.267000000    -5.940000000
O    -0.354000000    -1.001000000    -6.816000000
C    -0.667000000    -2.318000000    -6.672000000
C    -1.862000000    -2.580000000    -6.029000000
H    -2.412000000    -1.714000000    -5.669000000
C     0.072000000    -3.395000000    -7.149000000
H     1.034000000    -3.142000000    -7.586000000
C    -0.471000000    -4.700000000    -7.161000000
H     0.112000000    -5.498000000    -7.614000000
C    -1.701000000    -4.983000000    -6.507000000
H    -2.190000000    -5.947000000    -6.392000000
C    -2.302000000    -3.942000000    -5.876000000
O    -3.352000000    -4.120000000    -4.992000000
C    -3.269000000    -3.957000000    -3.584000000
C    -4.411000000    -3.586000000    -3.008000000
H    -5.348000000    -3.442000000    -3.541000000
C    -4.381000000    -3.278000000    -1.635000000
O    -5.562000000    -2.840000000    -1.084000000
C    -5.787000000    -2.655000000     0.245000000
C    -5.717000000    -1.352000000     0.737000000
H    -5.579000000    -0.590000000    -0.026000000
C    -5.884000000    -3.697000000     1.207000000
H    -5.737000000    -4.745000000     0.958000000
C    -6.133000000    -3.428000000     2.549000000
H    -6.190000000    -4.231000000     3.279000000
C    -6.136000000    -2.094000000     2.985000000
H    -6.258000000    -1.923000000     4.051000000
C    -5.875000000    -1.054000000     2.090000000
O    -5.884000000     0.267000000     2.561000000
C    -4.907000000     0.625000000     3.407000000
C    -5.040000000     1.871000000     4.012000000
H    -5.968000000     2.420000000     3.879000000
C    -4.018000000     2.357000000     4.892000000
O    -4.024000000     3.660000000     5.213000000
C    -2.991000000     4.498000000     4.837000000
C    -2.354000000     5.314000000     5.713000000
H    -2.743000000     5.260000000     6.726000000
C    -1.430000000     6.296000000     5.284000000
H    -0.872000000     6.901000000     5.994000000
C    -1.215000000     6.531000000     3.927000000
H    -0.547000000     7.277000000     3.505000000
C    -1.871000000     5.666000000     2.991000000
C    -2.652000000     4.583000000     3.483000000
H    -3.065000000     3.863000000     2.782000000
C    -1.726000000    -0.155000000    -0.390000000
H    -2.612000000    -0.702000000    -0.077000000
C    -0.480000000    -0.261000000     0.269000000
H    -0.408000000    -1.063000000     0.999000000
C     0.542000000     0.523000000    -0.132000000
H     1.548000000     0.355000000     0.320000000
C     0.391000000     1.519000000    -1.125000000
H     1.275000000     2.092000000    -1.391000000
C    -0.848000000     1.704000000    -1.791000000
H    -0.966000000     2.385000000    -2.630000000
C    -1.870000000     0.753000000    -1.425000000
C    -3.181000000     1.038000000    -2.056000000
O    -3.205000000     1.350000000    -3.228000000
O    -4.220000000     0.857000000    -1.391000000
O    -3.670000000     6.381000000    -1.552000000
H    -4.623000000     6.442000000    -1.618000000
H    -3.465000000     6.757000000    -0.696000000
O    -6.414000000     4.102000000     0.878000000
H    -5.516000000     3.772000000     0.862000000
H    -6.863000000     3.542000000     1.512000000
O    -2.052000000     4.690000000    -5.875000000
H    -2.218000000     4.656000000    -4.932000000
H    -1.192000000     4.285000000    -5.982000000
O    -3.476000000     0.656000000    -5.620000000
H    -3.923000000     1.458000000    -5.890000000
H    -3.113000000     0.862000000    -4.759000000
O    -4.679000000     6.762000000     1.653000000
H    -4.167000000     5.970000000     1.491000000
H    -4.717000000     6.833000000     2.607000000
O    -8.609000000     0.442000000    -6.282000000
H    -9.272000000     0.972000000    -6.724000000
H    -8.469000000     0.884000000    -5.445000000
O    -7.643000000     1.472000000    -0.287000000
H    -7.207000000     0.802000000     0.239000000
H    -7.489000000     1.204000000    -1.193000000
O    -6.418000000     0.240000000    -2.533000000
H    -5.584000000     0.530000000    -2.164000000
H    -6.179000000    -0.447000000    -3.156000000
O    -9.082000000    -1.484000000    -3.800000000
H    -9.198000000    -0.822000000    -3.118000000
H    -8.290000000    -1.214000000    -4.264000000
O    -8.452000000     2.278000000     2.245000000
H    -8.161000000     1.998000000     1.377000000
H    -8.329000000     1.507000000     2.799000000
O    -5.669000000     2.055000000    -7.606000000
H    -5.807000000     1.143000000    -7.351000000
H    -4.999000000     2.014000000    -8.288000000
O    -6.488000000     6.328000000    -2.215000000
H    -7.214000000     6.468000000    -1.607000000
H    -6.744000000     5.557000000    -2.720000000
O    -6.437000000     2.758000000    -4.354000000
H    -7.394000000     2.753000000    -4.398000000
H    -6.210000000     1.903000000    -3.988000000
O    -5.508000000    -1.243000000    -4.928000000
H    -4.621000000    -1.151000000    -4.580000000
H    -5.413000000    -1.094000000    -5.868000000
O    -3.010000000    -0.454000000    -8.225000000
H    -2.058000000    -0.406000000    -8.311000000
H    -3.198000000    -0.012000000    -7.397000000
O    -5.317000000     5.025000000    -4.729000000
H    -4.594000000     5.116000000    -4.109000000
H    -5.500000000     4.086000000    -4.748000000
O    -2.864000000     4.292000000    -3.442000000
H    -3.064000000     4.808000000    -2.661000000
H    -2.951000000     3.382000000    -3.156000000
O    -4.004000000     2.800000000     0.682000000
H    -3.053000000     2.692000000     0.660000000
H    -4.338000000     2.096000000     0.126000000
O    -8.352000000     4.013000000    -1.190000000
H    -8.688000000     3.120000000    -1.111000000
H    -7.631000000     4.054000000    -0.561000000
