215
-1440.17384
C     1.486000000     0.076000000    -5.210000000
H     1.414000000    -1.003000000    -5.092000000
C     2.355000000     0.737000000    -4.371000000
C     2.476000000     2.106000000    -4.350000000
H     3.045000000     2.598000000    -3.565000000
C     3.102000000    -0.039000000    -3.213000000
O     3.387000000    -1.374000000    -3.632000000
H     2.364000000     0.081000000    -2.407000000
O     4.381000000     0.503000000    -2.766000000
C     4.534000000     0.522000000    -1.395000000
C     4.269000000     1.679000000    -0.749000000
H     3.826000000     2.479000000    -1.336000000
C     4.260000000     1.752000000     0.591000000
O     3.778000000     2.914000000     1.201000000
C     4.597000000     0.668000000     1.340000000
C     4.640000000     0.734000000     2.866000000
H     5.526000000     0.155000000     3.135000000
C     3.270000000     0.411000000     3.504000000
C     2.974000000    -0.936000000     3.849000000
H     3.650000000    -1.781000000     3.743000000
H     4.892000000     1.765000000     3.124000000
C     4.977000000    -0.477000000     0.703000000
H     5.164000000    -1.369000000     1.295000000
C     4.989000000    -0.564000000    -0.705000000
C     5.190000000    -1.930000000    -1.436000000
H     5.834000000    -2.654000000    -0.932000000
H     5.705000000    -1.741000000    -2.380000000
C     3.821000000    -2.591000000    -1.611000000
C     3.371000000    -3.501000000    -0.676000000
H     4.046000000    -3.751000000     0.138000000
C     3.031000000    -2.307000000    -2.713000000
C     1.788000000    -2.913000000    -2.844000000
H     1.234000000    -2.670000000    -3.747000000
C     1.337000000    -3.813000000    -1.902000000
O     0.051000000    -4.371000000    -2.048000000
C    -0.925000000    -3.941000000    -1.109000000
C    -2.254000000    -3.661000000    -1.743000000
C    -3.497000000    -3.912000000    -1.106000000
H    -3.550000000    -4.291000000    -0.089000000
C    -2.295000000    -3.147000000    -3.036000000
H    -1.409000000    -2.969000000    -3.639000000
O    -1.091000000    -4.895000000     0.021000000
H    -0.671000000    -2.941000000    -0.727000000
C     2.085000000    -4.085000000    -0.740000000
C     1.692000000    -5.117000000     0.289000000
H     2.583000000    -5.520000000     0.774000000
H     1.229000000    -6.012000000    -0.133000000
C     0.812000000    -4.529000000     1.345000000
C     1.432000000    -3.913000000     2.415000000
H     2.510000000    -3.893000000     2.557000000
C    -0.537000000    -4.542000000     1.190000000
C    -1.360000000    -3.865000000     2.115000000
H    -2.412000000    -3.772000000     1.860000000
C    -0.767000000    -3.286000000     3.225000000
O    -1.524000000    -2.565000000     4.004000000
C    -1.356000000    -1.121000000     3.989000000
C    -2.677000000    -0.429000000     4.066000000
C    -3.768000000    -0.902000000     3.298000000
H    -3.662000000    -1.887000000     2.849000000
C    -2.922000000     0.740000000     4.779000000
H    -2.095000000     1.203000000     5.312000000
O    -0.468000000    -0.629000000     5.004000000
H    -1.021000000    -0.789000000     2.996000000
C     0.594000000    -3.339000000     3.395000000
C     1.411000000    -2.712000000     4.566000000
H     2.256000000    -3.359000000     4.808000000
H     0.699000000    -2.881000000     5.378000000
C     1.774000000    -1.243000000     4.382000000
C     0.754000000    -0.255000000     4.557000000
C     1.043000000     1.096000000     4.301000000
H     0.231000000     1.762000000     4.582000000
C     2.300000000     1.418000000     3.720000000
O     2.413000000     2.704000000     3.199000000
C     2.425000000     2.821000000     1.740000000
H     1.862000000     1.951000000     1.369000000
C     1.527000000     3.989000000     1.366000000
C     2.007000000     4.920000000     0.459000000
H     2.893000000     4.730000000    -0.141000000
C     0.267000000     4.271000000     2.027000000
H    -0.095000000     3.612000000     2.812000000
C    -0.519000000     5.316000000     1.636000000
O    -1.744000000     5.519000000     2.222000000
C    -0.001000000     6.253000000     0.777000000
H    -0.601000000     7.136000000     0.572000000
C     1.240000000     6.077000000     0.171000000
O     1.514000000     6.903000000    -0.943000000
C     2.177000000     6.343000000    -2.048000000
C     1.539000000     5.359000000    -2.822000000
H     0.520000000     5.072000000    -2.576000000
C     3.519000000     6.702000000    -2.260000000
H     4.002000000     7.505000000    -1.709000000
C     4.091000000     6.271000000    -3.384000000
H     5.112000000     6.592000000    -3.575000000
C     3.493000000     5.431000000    -4.267000000
H     4.090000000     5.048000000    -5.090000000
C     2.228000000     4.948000000    -3.988000000
O     1.572000000     4.204000000    -5.005000000
C     1.543000000     2.830000000    -5.129000000
C     0.790000000     2.230000000    -6.141000000
H     0.153000000     2.877000000    -6.738000000
C     0.706000000     0.821000000    -6.125000000
O    -0.132000000     0.184000000    -7.062000000
C    -0.727000000    -1.065000000    -6.803000000
C    -1.955000000    -1.202000000    -6.156000000
H    -2.441000000    -0.289000000    -5.821000000
C    -0.106000000    -2.224000000    -7.292000000
H     0.808000000    -2.046000000    -7.853000000
C    -0.787000000    -3.401000000    -7.136000000
H    -0.455000000    -4.364000000    -7.514000000
C    -1.950000000    -3.539000000    -6.383000000
H    -2.426000000    -4.516000000    -6.417000000
C    -2.556000000    -2.396000000    -5.806000000
O    -3.618000000    -2.299000000    -4.898000000
C    -3.511000000    -2.812000000    -3.626000000
C    -4.707000000    -3.084000000    -3.038000000
H    -5.678000000    -2.858000000    -3.470000000
C    -4.692000000    -3.583000000    -1.728000000
O    -5.880000000    -3.847000000    -1.145000000
C    -6.026000000    -3.614000000     0.185000000
C    -6.027000000    -2.323000000     0.622000000
H    -6.022000000    -1.489000000    -0.075000000
C    -6.138000000    -4.740000000     1.024000000
H    -5.875000000    -5.752000000     0.728000000
C    -6.381000000    -4.453000000     2.381000000
H    -6.620000000    -5.282000000     3.042000000
C    -6.333000000    -3.162000000     2.913000000
H    -6.569000000    -2.986000000     3.960000000
C    -6.092000000    -2.099000000     2.043000000
O    -6.128000000    -0.845000000     2.535000000
C    -5.025000000    -0.325000000     3.306000000
C    -5.095000000     0.964000000     3.861000000
H    -5.964000000     1.608000000     3.756000000
C    -4.104000000     1.476000000     4.636000000
O    -4.156000000     2.722000000     5.202000000
C    -3.214000000     3.743000000     4.997000000
C    -2.782000000     4.559000000     6.052000000
H    -3.084000000     4.319000000     7.068000000
C    -1.927000000     5.626000000     5.821000000
H    -1.610000000     6.180000000     6.701000000
C    -1.534000000     5.933000000     4.565000000
H    -0.910000000     6.801000000     4.368000000
C    -1.985000000     5.147000000     3.539000000
C    -2.867000000     4.093000000     3.730000000
H    -3.282000000     3.546000000     2.887000000
C    -2.301000000     0.123000000    -0.779000000
H    -3.327000000    -0.235000000    -0.813000000
C    -1.272000000    -0.250000000     0.070000000
H    -1.438000000    -0.761000000     1.015000000
C     0.004000000     0.237000000    -0.120000000
H     0.754000000     0.051000000     0.644000000
C     0.347000000     0.945000000    -1.251000000
H     1.360000000     1.326000000    -1.353000000
C    -0.689000000     1.270000000    -2.157000000
H    -0.405000000     1.931000000    -2.971000000
C    -2.030000000     0.942000000    -1.902000000
C    -3.131000000     1.612000000    -2.728000000
O    -2.801000000     2.208000000    -3.733000000
O    -4.306000000     1.635000000    -2.323000000
O    -4.413000000     5.347000000    -0.019000000
H    -3.475000000     5.530000000     0.034000000
H    -4.827000000     6.210000000    -0.007000000
O    -7.100000000     2.081000000     1.371000000
H    -6.160000000     2.030000000     1.196000000
H    -7.381000000     1.169000000     1.441000000
O    -6.101000000     7.010000000    -5.221000000
H    -5.568000000     6.396000000    -4.717000000
H    -6.132000000     7.800000000    -4.681000000
O    -2.976000000     2.991000000    -6.245000000
H    -2.463000000     3.798000000    -6.193000000
H    -2.828000000     2.559000000    -5.404000000
O    -5.459000000     1.928000000    -7.084000000
H    -4.588000000     2.137000000    -6.749000000
H    -5.295000000     1.390000000    -7.859000000
O    -6.689000000    -1.708000000    -5.924000000
H    -6.175000000    -1.626000000    -6.728000000
H    -6.189000000    -1.220000000    -5.270000000
O    -7.011000000     0.363000000    -2.047000000
H    -6.114000000     0.659000000    -1.894000000
H    -6.976000000    -0.076000000    -2.897000000
O    -5.688000000     0.315000000    -4.561000000
H    -4.932000000     0.469000000    -3.996000000
H    -5.753000000     1.108000000    -5.095000000
O    -9.592000000     1.729000000    -3.310000000
H    -9.001000000     1.822000000    -2.562000000
H   -10.101000000     0.942000000    -3.116000000
O    -7.288000000     3.967000000    -0.598000000
H    -7.198000000     3.239000000     0.017000000
H    -6.544000000     3.872000000    -1.193000000
O    -0.732000000     5.828000000    -5.210000000
H    -0.778000000     5.872000000    -6.165000000
H     0.205000000     5.798000000    -5.017000000
O    -5.700000000     3.917000000    -2.850000000
H    -5.241000000     3.129000000    -2.558000000
H    -5.033000000     4.424000000    -3.313000000
O    -7.416000000     6.675000000    -1.789000000
H    -7.181000000     5.758000000    -1.652000000
H    -6.587000000     7.107000000    -1.993000000
O    -6.874000000     4.128000000    -7.469000000
H    -7.290000000     4.029000000    -6.613000000
H    -6.238000000     3.414000000    -7.510000000
O    -1.819000000     2.961000000    -8.803000000
H    -2.185000000     2.595000000    -7.998000000
H    -1.636000000     3.876000000    -8.590000000
O    -7.947000000     3.283000000    -4.791000000
H    -7.190000000     3.456000000    -4.230000000
H    -8.484000000     2.672000000    -4.286000000
O    -3.742000000     5.535000000    -3.926000000
H    -2.961000000     5.925000000    -3.533000000
H    -3.411000000     5.030000000    -4.669000000
O    -4.529000000     2.409000000     0.245000000
H    -4.611000000     3.361000000     0.195000000
H    -4.603000000     2.114000000    -0.663000000
O    -9.038000000     0.619000000    -0.504000000
H    -8.228000000     0.412000000    -0.969000000
H    -8.876000000     0.340000000     0.397000000
