215
-1474.27910
C    -0.035000000    -1.632000000    -4.029000000
H    -0.200000000    -2.367000000    -3.245000000
C     1.230000000    -1.043000000    -4.112000000
C     1.401000000    -0.098000000    -5.125000000
H     2.380000000     0.342000000    -5.300000000
C     2.244000000    -1.413000000    -3.032000000
O     2.499000000    -2.829000000    -2.941000000
H     1.936000000    -1.136000000    -2.014000000
O     3.547000000    -0.819000000    -3.350000000
C     4.177000000    -0.185000000    -2.307000000
C     4.017000000     1.206000000    -2.214000000
H     3.656000000     1.806000000    -3.046000000
C     4.347000000     1.785000000    -1.022000000
O     3.920000000     3.157000000    -0.902000000
C     4.914000000     1.068000000     0.081000000
C     5.217000000     1.820000000     1.371000000
H     6.044000000     1.390000000     1.940000000
C     3.995000000     1.838000000     2.283000000
C     3.756000000     0.834000000     3.266000000
H     4.442000000     0.047000000     3.569000000
H     5.469000000     2.857000000     1.138000000
C     5.096000000    -0.309000000    -0.095000000
H     5.585000000    -0.904000000     0.673000000
C     4.708000000    -0.944000000    -1.257000000
C     4.841000000    -2.423000000    -1.264000000
H     5.750000000    -2.713000000    -0.733000000
H     5.089000000    -2.784000000    -2.264000000
C     3.608000000    -3.113000000    -0.758000000
C     3.623000000    -3.718000000     0.481000000
H     4.437000000    -3.528000000     1.177000000
C     2.561000000    -3.399000000    -1.698000000
C     1.535000000    -4.215000000    -1.265000000
H     0.756000000    -4.552000000    -1.944000000
C     1.448000000    -4.668000000     0.076000000
O     0.236000000    -5.222000000     0.479000000
C    -0.733000000    -4.361000000     1.105000000
C    -2.182000000    -4.665000000     0.515000000
C    -3.267000000    -4.209000000     1.188000000
H    -3.179000000    -3.751000000     2.170000000
C    -2.362000000    -5.228000000    -0.776000000
H    -1.476000000    -5.549000000    -1.318000000
O    -0.701000000    -4.504000000     2.511000000
H    -0.558000000    -3.307000000     0.844000000
C     2.461000000    -4.311000000     0.957000000
C     2.345000000    -4.549000000     2.427000000
H     3.311000000    -4.669000000     2.920000000
H     1.936000000    -5.548000000     2.596000000
C     1.485000000    -3.600000000     3.193000000
C     2.096000000    -2.609000000     3.981000000
H     3.165000000    -2.689000000     4.163000000
C     0.035000000    -3.644000000     3.225000000
C    -0.629000000    -2.450000000     3.672000000
H    -1.678000000    -2.402000000     3.390000000
C     0.043000000    -1.401000000     4.177000000
O    -0.742000000    -0.345000000     4.550000000
C    -0.686000000     0.801000000     3.726000000
C    -2.027000000     1.517000000     3.632000000
C    -3.123000000     0.708000000     3.399000000
H    -3.066000000    -0.371000000     3.284000000
C    -2.172000000     2.847000000     3.878000000
H    -1.346000000     3.540000000     4.016000000
O     0.333000000     1.699000000     4.397000000
H    -0.376000000     0.618000000     2.686000000
C     1.455000000    -1.458000000     4.347000000
C     2.308000000    -0.318000000     4.952000000
H     3.200000000    -0.876000000     5.246000000
H     1.744000000     0.098000000     5.789000000
C     2.518000000     0.804000000     3.927000000
C     1.583000000     1.823000000     3.790000000
C     1.798000000     2.867000000     2.859000000
H     1.083000000     3.661000000     2.660000000
C     2.994000000     2.835000000     2.159000000
O     3.102000000     3.788000000     1.197000000
C     2.754000000     3.359000000    -0.127000000
H     2.104000000     2.482000000     0.005000000
C     1.705000000     4.352000000    -0.684000000
C     1.637000000     4.343000000    -2.070000000
H     2.184000000     3.744000000    -2.793000000
C     0.879000000     5.153000000     0.111000000
H     0.922000000     5.233000000     1.194000000
C    -0.177000000     5.817000000    -0.511000000
O    -1.046000000     6.616000000     0.270000000
C    -0.256000000     5.889000000    -1.862000000
H    -1.056000000     6.466000000    -2.319000000
C     0.672000000     5.231000000    -2.682000000
O     0.419000000     5.226000000    -3.991000000
C     1.077000000     4.526000000    -4.993000000
C     0.531000000     3.316000000    -5.441000000
H    -0.431000000     2.981000000    -5.061000000
C     2.171000000     5.022000000    -5.712000000
H     2.473000000     6.059000000    -5.588000000
C     2.721000000     4.242000000    -6.780000000
H     3.574000000     4.635000000    -7.327000000
C     2.205000000     3.026000000    -7.136000000
H     2.602000000     2.523000000    -8.014000000
C     1.110000000     2.523000000    -6.429000000
O     0.511000000     1.400000000    -6.895000000
C     0.383000000     0.330000000    -6.020000000
C    -0.830000000    -0.339000000    -5.927000000
H    -1.632000000    -0.022000000    -6.589000000
C    -1.089000000    -1.225000000    -4.888000000
O    -2.273000000    -1.870000000    -4.817000000
C    -2.344000000    -3.266000000    -4.760000000
C    -3.091000000    -3.820000000    -3.734000000
H    -3.588000000    -3.173000000    -3.016000000
C    -1.699000000    -4.058000000    -5.659000000
H    -1.186000000    -3.552000000    -6.472000000
C    -1.864000000    -5.442000000    -5.706000000
H    -1.362000000    -6.007000000    -6.488000000
C    -2.560000000    -6.064000000    -4.667000000
H    -2.636000000    -7.136000000    -4.507000000
C    -3.113000000    -5.236000000    -3.655000000
O    -3.744000000    -5.914000000    -2.678000000
C    -3.593000000    -5.363000000    -1.329000000
C    -4.741000000    -4.878000000    -0.650000000
H    -5.745000000    -4.873000000    -1.066000000
C    -4.587000000    -4.209000000     0.610000000
O    -5.664000000    -3.604000000     1.243000000
C    -5.552000000    -2.898000000     2.474000000
C    -5.552000000    -1.520000000     2.342000000
H    -5.459000000    -1.047000000     1.368000000
C    -5.868000000    -3.490000000     3.686000000
H    -5.988000000    -4.570000000     3.713000000
C    -5.995000000    -2.670000000     4.833000000
H    -6.207000000    -3.108000000     5.804000000
C    -5.881000000    -1.274000000     4.740000000
H    -5.836000000    -0.684000000     5.652000000
C    -5.664000000    -0.716000000     3.466000000
O    -5.528000000     0.614000000     3.289000000
C    -4.392000000     1.363000000     3.444000000
C    -4.576000000     2.702000000     3.674000000
H    -5.604000000     3.039000000     3.781000000
C    -3.436000000     3.474000000     3.806000000
O    -3.500000000     4.825000000     4.068000000
C    -2.603000000     5.703000000     3.472000000
C    -1.838000000     6.464000000     4.354000000
H    -2.052000000     6.438000000     5.419000000
C    -0.844000000     7.341000000     3.863000000
H    -0.227000000     7.984000000     4.486000000
C    -0.508000000     7.302000000     2.517000000
H     0.230000000     8.005000000     2.139000000
C    -1.235000000     6.504000000     1.635000000
C    -2.318000000     5.743000000     2.118000000
H    -2.791000000     5.060000000     1.418000000
C    -2.815000000    -0.358000000    -1.137000000
H    -3.848000000    -0.682000000    -1.238000000
C    -2.072000000    -0.844000000    -0.046000000
H    -2.524000000    -1.569000000     0.627000000
C    -0.790000000    -0.356000000     0.186000000
H    -0.144000000    -0.700000000     1.005000000
C    -0.218000000     0.497000000    -0.747000000
H     0.805000000     0.864000000    -0.715000000
C    -0.914000000     1.010000000    -1.822000000
H    -0.543000000     1.752000000    -2.523000000
C    -2.279000000     0.648000000    -1.952000000
C    -3.113000000     1.294000000    -3.115000000
O    -2.554000000     2.168000000    -3.720000000
O    -4.188000000     0.832000000    -3.362000000
O    -2.757000000     5.096000000    -3.839000000
H    -2.475000000     5.351000000    -4.717000000
H    -2.530000000     4.168000000    -3.774000000
O    -2.354000000     6.149000000    -6.295000000
H    -1.469000000     6.443000000    -6.510000000
H    -2.904000000     6.919000000    -6.441000000
O    -5.206000000    -1.406000000    -4.746000000
H    -5.421000000    -1.022000000    -3.896000000
H    -4.264000000    -1.264000000    -4.841000000
O    -5.269000000     4.505000000    -7.611000000
H    -4.384000000     4.173000000    -7.764000000
H    -5.443000000     5.076000000    -8.359000000
O    -8.235000000    -1.605000000     0.363000000
H    -8.056000000    -2.317000000    -0.251000000
H    -7.611000000    -0.920000000     0.124000000
O    -4.375000000     5.013000000    -1.405000000
H    -5.200000000     4.918000000    -1.882000000
H    -3.698000000     4.856000000    -2.064000000
O    -3.408000000     1.393000000    -6.281000000
H    -3.454000000     1.421000000    -5.325000000
H    -2.914000000     2.177000000    -6.520000000
O    -5.349000000     3.344000000    -3.943000000
H    -5.058000000     2.455000000    -3.740000000
H    -4.578000000     3.768000000    -4.320000000
O    -6.510000000     0.546000000    -0.358000000
H    -5.892000000     1.271000000    -0.268000000
H    -6.901000000     0.670000000    -1.222000000
O    -7.233000000     5.165000000    -4.780000000
H    -6.930000000     5.703000000    -4.049000000
H    -6.651000000     4.406000000    -4.776000000
O    -7.046000000     3.022000000     1.820000000
H    -6.226000000     2.535000000     1.742000000
H    -7.399000000     3.041000000     0.931000000
O    -6.196000000    -4.051000000    -4.029000000
H    -6.237000000    -4.871000000    -4.520000000
H    -5.711000000    -3.454000000    -4.599000000
O    -6.021000000     0.657000000    -6.326000000
H    -5.151000000     1.019000000    -6.496000000
H    -5.859000000    -0.106000000    -5.771000000
O    -2.119000000     3.528000000    -7.230000000
H    -2.020000000     4.322000000    -6.703000000
H    -1.325000000     3.494000000    -7.763000000
O    -3.434000000     7.737000000    -2.980000000
H    -3.332000000     6.788000000    -3.048000000
H    -3.415000000     7.913000000    -2.040000000
O    -4.257000000     2.229000000     0.202000000
H    -3.586000000     1.549000000     0.261000000
H    -3.933000000     2.827000000    -0.471000000
O    -7.237000000     0.882000000    -2.952000000
H    -7.987000000     1.287000000    -3.386000000
H    -6.489000000     1.417000000    -3.218000000
O    -3.089000000     0.891000000    -8.923000000
H    -3.227000000     1.136000000    -8.009000000
H    -3.319000000     1.676000000    -9.420000000
O    -7.768000000    -2.684000000    -2.395000000
H    -7.419000000    -1.863000000    -2.742000000
H    -7.237000000    -3.364000000    -2.810000000
