215
-1448.57811
C    -0.537000000    -2.073000000    -4.157000000
H    -0.676000000    -3.019000000    -3.641000000
C     0.691000000    -1.338000000    -4.256000000
C     0.711000000    -0.232000000    -5.117000000
H     1.607000000     0.369000000    -5.243000000
C     1.974000000    -1.788000000    -3.451000000
O     2.219000000    -3.186000000    -3.488000000
H     1.896000000    -1.401000000    -2.424000000
O     3.151000000    -1.036000000    -3.956000000
C     3.866000000    -0.356000000    -3.010000000
C     3.738000000     1.027000000    -2.930000000
H     3.084000000     1.586000000    -3.595000000
C     4.097000000     1.667000000    -1.734000000
O     3.765000000     2.994000000    -1.530000000
C     4.706000000     0.928000000    -0.694000000
C     5.219000000     1.506000000     0.549000000
H     6.027000000     0.937000000     1.014000000
C     4.223000000     1.754000000     1.648000000
C     4.177000000     0.853000000     2.752000000
H     4.892000000     0.036000000     2.706000000
H     5.628000000     2.442000000     0.162000000
C     4.992000000    -0.405000000    -0.888000000
H     5.438000000    -0.961000000    -0.066000000
C     4.537000000    -1.101000000    -2.019000000
C     4.660000000    -2.674000000    -2.048000000
H     5.479000000    -3.145000000    -1.499000000
H     4.882000000    -2.915000000    -3.090000000
C     3.463000000    -3.403000000    -1.481000000
C     3.428000000    -3.652000000    -0.080000000
H     4.279000000    -3.431000000     0.558000000
C     2.383000000    -3.746000000    -2.272000000
C     1.191000000    -4.244000000    -1.669000000
H     0.262000000    -4.482000000    -2.181000000
C     1.173000000    -4.428000000    -0.232000000
O    -0.024000000    -4.797000000     0.358000000
C    -0.815000000    -3.938000000     1.143000000
C    -2.292000000    -4.094000000     0.988000000
C    -3.136000000    -3.864000000     2.041000000
H    -2.693000000    -3.566000000     2.988000000
C    -2.769000000    -4.471000000    -0.293000000
H    -2.114000000    -4.580000000    -1.154000000
O    -0.355000000    -4.244000000     2.505000000
H    -0.493000000    -2.908000000     0.929000000
C     2.305000000    -4.227000000     0.526000000
C     2.411000000    -4.451000000     2.024000000
H     3.478000000    -4.479000000     2.255000000
H     1.933000000    -5.390000000     2.312000000
C     1.827000000    -3.374000000     2.924000000
C     2.621000000    -2.389000000     3.460000000
H     3.707000000    -2.398000000     3.404000000
C     0.454000000    -3.351000000     3.135000000
C    -0.163000000    -2.244000000     3.808000000
H    -1.236000000    -2.152000000     3.958000000
C     0.701000000    -1.263000000     4.393000000
O     0.106000000    -0.161000000     4.929000000
C    -0.016000000     0.928000000     3.998000000
C    -1.429000000     1.595000000     4.135000000
C    -2.580000000     0.795000000     4.171000000
H    -2.504000000    -0.269000000     4.380000000
C    -1.646000000     2.975000000     3.804000000
H    -0.787000000     3.587000000     3.540000000
O     1.031000000     1.926000000     4.417000000
H     0.048000000     0.502000000     2.986000000
C     2.078000000    -1.314000000     4.179000000
C     3.109000000    -0.284000000     4.698000000
H     4.117000000    -0.702000000     4.717000000
H     2.870000000     0.074000000     5.702000000
C     3.116000000     0.871000000     3.662000000
C     2.148000000     1.924000000     3.642000000
C     2.369000000     2.964000000     2.753000000
H     1.722000000     3.825000000     2.610000000
C     3.325000000     2.870000000     1.704000000
O     3.183000000     3.772000000     0.698000000
C     2.629000000     3.273000000    -0.580000000
H     2.114000000     2.350000000    -0.273000000
C     1.669000000     4.265000000    -1.151000000
C     1.534000000     4.284000000    -2.533000000
H     1.997000000     3.506000000    -3.136000000
C     0.833000000     5.100000000    -0.323000000
H     0.866000000     4.938000000     0.752000000
C    -0.067000000     5.908000000    -0.912000000
O    -0.929000000     6.731000000    -0.174000000
C    -0.108000000     6.032000000    -2.288000000
H    -0.820000000     6.753000000    -2.683000000
C     0.661000000     5.213000000    -3.090000000
O     0.578000000     5.400000000    -4.460000000
C     0.914000000     4.478000000    -5.428000000
C     0.145000000     3.346000000    -5.653000000
H    -0.742000000     3.192000000    -5.043000000
C     2.012000000     4.713000000    -6.232000000
H     2.666000000     5.547000000    -5.989000000
C     2.325000000     3.848000000    -7.205000000
H     3.232000000     4.028000000    -7.776000000
C     1.543000000     2.711000000    -7.400000000
H     1.850000000     1.993000000    -8.155000000
C     0.505000000     2.379000000    -6.557000000
O    -0.306000000     1.245000000    -6.714000000
C    -0.407000000     0.216000000    -5.816000000
C    -1.643000000    -0.446000000    -5.679000000
H    -2.482000000    -0.181000000    -6.318000000
C    -1.610000000    -1.625000000    -4.918000000
O    -2.777000000    -2.334000000    -5.061000000
C    -2.933000000    -3.635000000    -4.566000000
C    -3.775000000    -3.753000000    -3.474000000
H    -4.242000000    -2.844000000    -3.102000000
C    -2.313000000    -4.812000000    -5.117000000
H    -1.714000000    -4.699000000    -6.017000000
C    -2.667000000    -6.102000000    -4.609000000
H    -2.315000000    -7.029000000    -5.055000000
C    -3.493000000    -6.116000000    -3.458000000
H    -3.823000000    -7.109000000    -3.167000000
C    -3.976000000    -4.983000000    -2.814000000
O    -4.768000000    -4.939000000    -1.657000000
C    -4.175000000    -4.584000000    -0.448000000
C    -5.001000000    -4.378000000     0.653000000
H    -6.082000000    -4.463000000     0.583000000
C    -4.465000000    -4.048000000     1.884000000
O    -5.179000000    -4.054000000     3.021000000
C    -5.244000000    -2.987000000     3.970000000
C    -4.828000000    -1.661000000     3.687000000
H    -4.514000000    -1.414000000     2.676000000
C    -5.539000000    -3.323000000     5.313000000
H    -5.746000000    -4.372000000     5.508000000
C    -5.646000000    -2.339000000     6.286000000
H    -5.994000000    -2.597000000     7.283000000
C    -5.526000000    -0.983000000     5.924000000
H    -5.780000000    -0.174000000     6.605000000
C    -5.063000000    -0.651000000     4.650000000
O    -4.962000000     0.632000000     4.296000000
C    -3.781000000     1.358000000     4.200000000
C    -4.035000000     2.712000000     3.956000000
H    -5.056000000     3.083000000     3.985000000
C    -2.926000000     3.496000000     3.801000000
O    -3.140000000     4.902000000     3.677000000
C    -2.236000000     5.792000000     3.098000000
C    -1.500000000     6.643000000     3.904000000
H    -1.834000000     6.700000000     4.937000000
C    -0.540000000     7.467000000     3.371000000
H     0.055000000     8.030000000     4.086000000
C    -0.296000000     7.520000000     1.997000000
H     0.541000000     8.142000000     1.689000000
C    -1.102000000     6.689000000     1.204000000
C    -2.099000000     5.945000000     1.774000000
H    -2.726000000     5.324000000     1.139000000
C    -2.577000000    -0.097000000    -2.010000000
H    -3.345000000    -0.752000000    -2.411000000
C    -1.717000000    -0.656000000    -1.074000000
H    -1.794000000    -1.713000000    -0.830000000
C    -0.774000000     0.187000000    -0.520000000
H    -0.072000000    -0.202000000     0.285000000
C    -0.673000000     1.512000000    -0.946000000
H     0.107000000     2.158000000    -0.552000000
C    -1.441000000     1.992000000    -2.007000000
H    -1.307000000     3.006000000    -2.375000000
C    -2.518000000     1.240000000    -2.497000000
C    -3.529000000     1.788000000    -3.447000000
O    -3.420000000     2.861000000    -3.903000000
O    -4.494000000     1.188000000    -3.794000000
O    -3.048000000     5.343000000    -3.901000000
H    -2.365000000     5.542000000    -4.542000000
H    -3.182000000     4.399000000    -3.978000000
O    -1.855000000     5.732000000    -6.502000000
H    -1.340000000     5.285000000    -7.174000000
H    -2.105000000     6.563000000    -6.906000000
O    -4.896000000     0.737000000    -6.592000000
H    -4.561000000     1.632000000    -6.644000000
H    -5.178000000     0.638000000    -5.683000000
O    -6.681000000     4.121000000     0.529000000
H    -6.470000000     4.717000000    -0.190000000
H    -6.468000000     4.615000000     1.320000000
O    -6.725000000     5.806000000    -1.776000000
H    -7.448000000     6.390000000    -1.548000000
H    -6.654000000     5.873000000    -2.729000000
O    -4.056000000     5.109000000    -1.367000000
H    -4.989000000     5.304000000    -1.455000000
H    -3.670000000     5.412000000    -2.189000000
O    -3.445000000     2.958000000    -6.550000000
H    -3.267000000     3.198000000    -5.641000000
H    -3.665000000     3.785000000    -6.978000000
O    -6.285000000     3.135000000    -4.388000000
H    -5.355000000     2.991000000    -4.217000000
H    -6.645000000     2.257000000    -4.511000000
O    -5.687000000     0.245000000    -0.852000000
H    -5.277000000     1.103000000    -0.744000000
H    -5.358000000    -0.073000000    -1.693000000
O    -6.140000000     5.894000000    -4.623000000
H    -5.240000000     6.152000000    -4.826000000
H    -6.129000000     4.938000000    -4.660000000
O    -7.652000000     1.572000000     0.543000000
H    -7.419000000     2.498000000     0.602000000
H    -6.938000000     1.177000000     0.042000000
O    -7.415000000    -3.433000000    -2.607000000
H    -7.156000000    -4.283000000    -2.964000000
H    -6.988000000    -2.794000000    -3.178000000
O    -7.717000000    -0.017000000    -7.026000000
H    -7.254000000    -0.553000000    -6.382000000
H    -7.214000000     0.797000000    -7.066000000
O    -4.703000000    -1.096000000    -8.716000000
H    -4.614000000    -1.498000000    -7.852000000
H    -5.136000000    -0.259000000    -8.548000000
O    -3.585000000     8.333000000    -3.537000000
H    -3.373000000     7.399000000    -3.542000000
H    -3.502000000     8.592000000    -2.619000000
O    -4.385000000     2.611000000    -0.145000000
H    -3.977000000     3.210000000    -0.770000000
H    -5.074000000     3.130000000     0.270000000
O    -6.085000000    -0.949000000    -3.760000000
H    -6.856000000    -0.399000000    -3.905000000
H    -5.350000000    -0.335000000    -3.761000000
O    -7.964000000     0.898000000    -4.141000000
H    -8.773000000     0.697000000    -4.611000000
H    -8.256000000     1.256000000    -3.303000000
O    -3.191000000     1.780000000    -9.119000000
H    -3.120000000     2.093000000    -8.218000000
H    -4.131000000     1.781000000    -9.300000000
