215
-1472.44582
C    -1.666000000    -2.370000000    -4.190000000
H    -1.712000000    -3.163000000    -3.448000000
C    -0.463000000    -1.624000000    -4.234000000
C    -0.386000000    -0.614000000    -5.177000000
H     0.578000000    -0.162000000    -5.394000000
C     0.699000000    -2.018000000    -3.334000000
O     0.706000000    -3.418000000    -3.075000000
H     0.725000000    -1.456000000    -2.388000000
O     1.922000000    -1.654000000    -4.048000000
C     2.983000000    -1.158000000    -3.372000000
C     3.127000000     0.256000000    -3.349000000
H     2.469000000     0.802000000    -4.020000000
C     3.971000000     0.867000000    -2.446000000
O     3.932000000     2.242000000    -2.347000000
C     4.659000000     0.088000000    -1.485000000
C     5.506000000     0.725000000    -0.474000000
H     6.305000000     0.037000000    -0.191000000
C     4.742000000     1.117000000     0.830000000
C     4.623000000     0.226000000     1.906000000
H     5.175000000    -0.710000000     1.926000000
H     6.068000000     1.533000000    -0.947000000
C     4.569000000    -1.325000000    -1.509000000
H     4.988000000    -1.821000000    -0.637000000
C     3.708000000    -1.936000000    -2.427000000
C     3.403000000    -3.453000000    -2.276000000
H     4.312000000    -4.004000000    -2.028000000
H     3.160000000    -3.977000000    -3.202000000
C     2.346000000    -3.762000000    -1.284000000
C     2.666000000    -4.149000000    -0.001000000
H     3.639000000    -3.953000000     0.443000000
C     1.027000000    -3.747000000    -1.758000000
C     0.045000000    -4.171000000    -0.945000000
H    -0.953000000    -4.267000000    -1.366000000
C     0.315000000    -4.650000000     0.313000000
O    -0.778000000    -4.950000000     1.131000000
C    -1.367000000    -3.908000000     1.897000000
C    -2.872000000    -3.744000000     1.782000000
C    -3.544000000    -3.124000000     2.804000000
H    -3.060000000    -2.790000000     3.718000000
C    -3.596000000    -4.139000000     0.647000000
H    -3.125000000    -4.688000000    -0.164000000
O    -0.777000000    -4.041000000     3.206000000
H    -1.028000000    -2.966000000     1.442000000
C     1.618000000    -4.578000000     0.849000000
C     1.851000000    -4.753000000     2.302000000
H     2.879000000    -5.116000000     2.358000000
H     1.177000000    -5.513000000     2.704000000
C     1.631000000    -3.494000000     3.083000000
C     2.696000000    -2.677000000     3.451000000
H     3.728000000    -2.900000000     3.190000000
C     0.293000000    -3.196000000     3.450000000
C     0.058000000    -1.957000000     4.082000000
H    -0.944000000    -1.612000000     4.325000000
C     1.144000000    -1.130000000     4.421000000
O     0.818000000     0.137000000     4.937000000
C     0.776000000     1.157000000     3.961000000
C    -0.435000000     2.064000000     4.095000000
C    -1.530000000     1.636000000     4.735000000
H    -1.552000000     0.648000000     5.188000000
C    -0.469000000     3.310000000     3.440000000
H     0.305000000     3.628000000     2.746000000
O     1.999000000     1.886000000     3.963000000
H     0.698000000     0.796000000     2.925000000
C     2.487000000    -1.435000000     4.029000000
C     3.637000000    -0.470000000     4.185000000
H     4.579000000    -1.012000000     4.289000000
H     3.591000000     0.118000000     5.104000000
C     3.724000000     0.445000000     2.979000000
C     2.917000000     1.643000000     2.947000000
C     3.069000000     2.565000000     1.938000000
H     2.564000000     3.526000000     2.000000000
C     3.907000000     2.253000000     0.850000000
O     3.837000000     3.161000000    -0.129000000
C     3.098000000     2.813000000    -1.338000000
H     2.348000000     2.047000000    -1.094000000
C     2.274000000     3.967000000    -1.908000000
C     1.552000000     3.861000000    -3.088000000
H     1.829000000     3.002000000    -3.694000000
C     1.971000000     5.070000000    -1.074000000
H     2.360000000     5.054000000    -0.059000000
C     1.172000000     6.133000000    -1.484000000
O     0.857000000     7.100000000    -0.574000000
C     0.576000000     6.034000000    -2.715000000
H    -0.172000000     6.797000000    -2.917000000
C     0.742000000     4.913000000    -3.514000000
O     0.206000000     4.750000000    -4.788000000
C     0.406000000     3.832000000    -5.784000000
C    -0.416000000     2.681000000    -5.842000000
H    -1.168000000     2.562000000    -5.066000000
C     1.138000000     4.175000000    -6.924000000
H     1.663000000     5.124000000    -6.997000000
C     1.308000000     3.298000000    -7.944000000
H     1.870000000     3.571000000    -8.833000000
C     0.565000000     2.081000000    -7.919000000
H     0.614000000     1.410000000    -8.772000000
C    -0.271000000     1.753000000    -6.849000000
O    -1.234000000     0.774000000    -6.987000000
C    -1.446000000    -0.192000000    -5.963000000
C    -2.697000000    -0.854000000    -5.854000000
H    -3.535000000    -0.613000000    -6.503000000
C    -2.754000000    -1.982000000    -4.977000000
O    -4.046000000    -2.512000000    -4.758000000
C    -4.285000000    -3.569000000    -3.984000000
C    -4.880000000    -3.437000000    -2.722000000
H    -5.104000000    -2.412000000    -2.437000000
C    -3.790000000    -4.843000000    -4.395000000
H    -3.375000000    -4.988000000    -5.389000000
C    -4.053000000    -5.943000000    -3.577000000
H    -3.831000000    -6.932000000    -3.968000000
C    -4.590000000    -5.778000000    -2.324000000
H    -4.859000000    -6.655000000    -1.741000000
C    -5.010000000    -4.532000000    -1.866000000
O    -5.646000000    -4.286000000    -0.622000000
C    -4.958000000    -3.901000000     0.525000000
C    -5.607000000    -3.223000000     1.571000000
H    -6.638000000    -2.923000000     1.400000000
C    -4.896000000    -2.857000000     2.690000000
O    -5.526000000    -2.011000000     3.595000000
C    -4.931000000    -1.341000000     4.672000000
C    -4.673000000     0.055000000     4.605000000
H    -4.906000000     0.641000000     3.719000000
C    -4.670000000    -2.055000000     5.818000000
H    -4.926000000    -3.108000000     5.911000000
C    -4.031000000    -1.394000000     6.893000000
H    -3.673000000    -1.914000000     7.778000000
C    -3.749000000    -0.012000000     6.768000000
H    -3.290000000     0.407000000     7.660000000
C    -4.120000000     0.696000000     5.641000000
O    -3.752000000     2.046000000     5.578000000
C    -2.655000000     2.471000000     4.810000000
C    -2.597000000     3.769000000     4.340000000
H    -3.521000000     4.340000000     4.382000000
C    -1.529000000     4.220000000     3.619000000
O    -1.579000000     5.581000000     3.241000000
C    -0.481000000     6.180000000     2.707000000
C     0.576000000     6.549000000     3.570000000
H     0.544000000     6.239000000     4.611000000
C     1.732000000     7.098000000     2.977000000
H     2.600000000     7.231000000     3.618000000
C     1.821000000     7.398000000     1.594000000
H     2.685000000     7.884000000     1.147000000
C     0.731000000     7.074000000     0.794000000
C    -0.360000000     6.433000000     1.348000000
H    -1.154000000     6.000000000     0.745000000
C    -1.265000000     0.004000000    -1.269000000
H    -1.880000000    -0.750000000    -1.753000000
C    -0.310000000    -0.368000000    -0.331000000
H     0.001000000    -1.406000000    -0.237000000
C     0.418000000     0.543000000     0.412000000
H     1.259000000     0.236000000     0.986000000
C     0.228000000     1.901000000     0.188000000
H     0.767000000     2.681000000     0.721000000
C    -0.800000000     2.243000000    -0.720000000
H    -0.913000000     3.324000000    -0.736000000
C    -1.539000000     1.359000000    -1.480000000
C    -2.680000000     1.798000000    -2.309000000
O    -2.881000000     2.951000000    -2.581000000
O    -3.467000000     0.959000000    -2.686000000
O    -2.523000000     5.427000000    -1.380000000
H    -1.847000000     5.921000000    -1.842000000
H    -2.721000000     4.692000000    -1.960000000
O    -2.696000000     6.554000000    -4.438000000
H    -1.990000000     5.919000000    -4.561000000
H    -2.681000000     7.085000000    -5.234000000
O    -3.965000000     1.353000000    -8.783000000
H    -4.485000000     1.764000000    -9.475000000
H    -3.680000000     2.083000000    -8.233000000
O    -3.671000000     3.134000000     1.076000000
H    -2.902000000     3.501000000     0.639000000
H    -4.398000000     3.325000000     0.483000000
O    -6.748000000     2.850000000    -7.779000000
H    -6.855000000     2.681000000    -6.843000000
H    -6.163000000     3.607000000    -7.820000000
O    -7.684000000    -0.464000000     1.947000000
H    -8.267000000    -0.365000000     1.194000000
H    -6.808000000    -0.517000000     1.566000000
O    -4.515000000     2.536000000    -4.900000000
H    -3.843000000     2.794000000    -4.269000000
H    -4.874000000     1.722000000    -4.547000000
O    -5.511000000     3.453000000    -1.413000000
H    -4.758000000     3.019000000    -1.812000000
H    -6.220000000     2.813000000    -1.480000000
O    -5.461000000     0.131000000     0.408000000
H    -4.717000000     0.022000000     1.000000000
H    -5.069000000     0.386000000    -0.426000000
O    -5.159000000     5.758000000    -3.707000000
H    -4.287000000     6.076000000    -3.939000000
H    -5.052000000     5.382000000    -2.834000000
O    -7.824000000    -1.989000000    -3.790000000
H    -8.555000000    -1.805000000    -4.380000000
H    -7.045000000    -1.749000000    -4.290000000
O    -5.727000000     3.461000000     2.848000000
H    -5.885000000     4.304000000     2.425000000
H    -4.967000000     3.102000000     2.390000000
O    -7.556000000     3.080000000    -5.261000000
H    -6.618000000     3.191000000    -5.104000000
H    -7.918000000     2.861000000    -4.403000000
O    -8.109000000     5.149000000    -3.064000000
H    -8.241000000     5.451000000    -2.166000000
H    -7.165000000     5.006000000    -3.133000000
O    -2.482000000     0.518000000     1.736000000
H    -1.788000000     0.301000000     1.114000000
H    -2.724000000     1.419000000     1.519000000
O    -5.252000000     5.106000000    -6.676000000
H    -5.523000000     5.208000000    -5.764000000
H    -4.958000000     5.978000000    -6.938000000
O    -5.402000000    -0.232000000    -4.080000000
H    -4.930000000    -0.741000000    -4.739000000
H    -4.715000000     0.155000000    -3.538000000
O    -6.888000000     1.397000000    -2.376000000
H    -6.443000000     0.714000000    -2.876000000
H    -7.434000000     0.920000000    -1.751000000
O    -3.391000000     3.377000000    -7.328000000
H    -3.633000000     2.642000000    -6.764000000
H    -4.041000000     4.052000000    -7.134000000
