215
-1444.50891
C    -1.273000000    -2.769000000    -4.633000000
H    -1.117000000    -3.718000000    -4.125000000
C    -0.224000000    -1.874000000    -4.495000000
C    -0.331000000    -0.639000000    -5.100000000
H     0.417000000     0.140000000    -4.978000000
C     1.023000000    -2.272000000    -3.710000000
O     1.282000000    -3.735000000    -3.502000000
H     0.815000000    -1.843000000    -2.719000000
O     2.194000000    -1.575000000    -4.132000000
C     3.071000000    -0.984000000    -3.206000000
C     3.139000000     0.401000000    -3.220000000
H     2.373000000     1.019000000    -3.680000000
C     3.942000000     1.034000000    -2.285000000
O     3.700000000     2.362000000    -2.196000000
C     4.607000000     0.356000000    -1.264000000
C     5.442000000     1.050000000    -0.201000000
H     6.293000000     0.424000000     0.074000000
C     4.594000000     1.330000000     1.019000000
C     4.601000000     0.548000000     2.208000000
H     5.076000000    -0.430000000     2.221000000
H     5.721000000     2.020000000    -0.618000000
C     4.557000000    -1.048000000    -1.230000000
H     5.070000000    -1.586000000    -0.437000000
C     3.835000000    -1.729000000    -2.277000000
C     3.954000000    -3.219000000    -2.345000000
H     4.850000000    -3.571000000    -1.829000000
H     4.064000000    -3.580000000    -3.369000000
C     2.744000000    -3.765000000    -1.494000000
C     2.919000000    -3.985000000    -0.163000000
H     3.852000000    -3.713000000     0.325000000
C     1.504000000    -4.066000000    -2.134000000
C     0.453000000    -4.378000000    -1.305000000
H    -0.491000000    -4.579000000    -1.805000000
C     0.655000000    -4.571000000     0.068000000
O    -0.454000000    -4.769000000     0.838000000
C    -1.002000000    -3.721000000     1.676000000
C    -2.533000000    -3.621000000     1.584000000
C    -3.318000000    -3.305000000     2.733000000
H    -2.714000000    -3.027000000     3.594000000
C    -3.147000000    -3.749000000     0.359000000
H    -2.526000000    -3.938000000    -0.514000000
O    -0.489000000    -3.828000000     3.013000000
H    -0.602000000    -2.791000000     1.246000000
C     1.925000000    -4.406000000     0.713000000
C     2.143000000    -4.462000000     2.279000000
H     3.215000000    -4.655000000     2.348000000
H     1.565000000    -5.327000000     2.612000000
C     1.821000000    -3.209000000     3.073000000
C     2.797000000    -2.320000000     3.463000000
H     3.805000000    -2.501000000     3.100000000
C     0.486000000    -2.993000000     3.462000000
C     0.176000000    -1.857000000     4.221000000
H    -0.842000000    -1.564000000     4.464000000
C     1.199000000    -0.947000000     4.499000000
O     0.836000000     0.262000000     4.951000000
C     0.683000000     1.259000000     3.980000000
C    -0.585000000     2.064000000     4.058000000
C    -1.746000000     1.489000000     4.628000000
H    -1.698000000     0.445000000     4.928000000
C    -0.634000000     3.446000000     3.701000000
H     0.284000000     3.907000000     3.347000000
O     1.886000000     2.110000000     4.061000000
H     0.743000000     0.837000000     2.966000000
C     2.516000000    -1.166000000     4.125000000
C     3.662000000    -0.139000000     4.334000000
H     4.648000000    -0.597000000     4.435000000
H     3.582000000     0.319000000     5.323000000
C     3.795000000     0.837000000     3.286000000
C     2.903000000     1.865000000     3.139000000
C     2.887000000     2.722000000     2.046000000
H     2.160000000     3.530000000     2.076000000
C     3.804000000     2.546000000     1.025000000
O     3.537000000     3.297000000    -0.058000000
C     2.792000000     2.742000000    -1.193000000
H     2.106000000     1.940000000    -0.882000000
C     1.792000000     3.848000000    -1.684000000
C     1.503000000     3.864000000    -3.025000000
H     1.866000000     3.071000000    -3.674000000
C     1.407000000     4.960000000    -0.928000000
H     1.677000000     5.130000000     0.111000000
C     0.524000000     5.904000000    -1.381000000
O     0.116000000     7.031000000    -0.589000000
C     0.184000000     5.861000000    -2.743000000
H    -0.557000000     6.574000000    -3.096000000
C     0.749000000     4.890000000    -3.551000000
O     0.517000000     4.921000000    -4.912000000
C     0.534000000     3.785000000    -5.694000000
C    -0.468000000     2.811000000    -5.633000000
H    -1.273000000     2.874000000    -4.906000000
C     1.511000000     3.646000000    -6.708000000
H     2.236000000     4.422000000    -6.939000000
C     1.541000000     2.520000000    -7.530000000
H     2.293000000     2.455000000    -8.312000000
C     0.537000000     1.544000000    -7.425000000
H     0.513000000     0.680000000    -8.084000000
C    -0.508000000     1.737000000    -6.551000000
O    -1.573000000     0.892000000    -6.472000000
C    -1.517000000    -0.310000000    -5.828000000
C    -2.563000000    -1.188000000    -5.963000000
H    -3.475000000    -0.888000000    -6.473000000
C    -2.438000000    -2.477000000    -5.388000000
O    -3.420000000    -3.466000000    -5.491000000
C    -3.807000000    -4.198000000    -4.386000000
C    -4.481000000    -3.551000000    -3.331000000
H    -4.617000000    -2.473000000    -3.346000000
C    -3.482000000    -5.522000000    -4.350000000
H    -3.106000000    -5.973000000    -5.265000000
C    -3.781000000    -6.327000000    -3.231000000
H    -3.554000000    -7.389000000    -3.189000000
C    -4.370000000    -5.660000000    -2.164000000
H    -4.575000000    -6.287000000    -1.301000000
C    -4.670000000    -4.316000000    -2.168000000
O    -5.110000000    -3.718000000    -1.048000000
C    -4.543000000    -3.671000000     0.170000000
C    -5.285000000    -3.308000000     1.294000000
H    -6.324000000    -3.042000000     1.117000000
C    -4.696000000    -3.116000000     2.595000000
O    -5.477000000    -2.651000000     3.607000000
C    -5.070000000    -1.865000000     4.589000000
C    -4.669000000    -0.539000000     4.286000000
H    -4.739000000    -0.215000000     3.251000000
C    -4.935000000    -2.346000000     5.856000000
H    -5.075000000    -3.402000000     6.071000000
C    -4.580000000    -1.482000000     6.870000000
H    -4.346000000    -1.860000000     7.862000000
C    -4.245000000    -0.143000000     6.591000000
H    -3.962000000     0.595000000     7.337000000
C    -4.361000000     0.309000000     5.265000000
O    -4.088000000     1.658000000     5.005000000
C    -2.880000000     2.240000000     4.681000000
C    -2.960000000     3.602000000     4.327000000
H    -3.909000000     4.121000000     4.429000000
C    -1.878000000     4.178000000     3.750000000
O    -2.021000000     5.495000000     3.462000000
C    -0.976000000     6.160000000     2.867000000
C    -0.080000000     6.960000000     3.634000000
H    -0.158000000     7.014000000     4.717000000
C     0.772000000     7.850000000     2.969000000
H     1.287000000     8.577000000     3.592000000
C     0.911000000     7.834000000     1.548000000
H     1.618000000     8.528000000     1.098000000
C     0.086000000     6.972000000     0.826000000
C    -0.897000000     6.331000000     1.495000000
H    -1.677000000     5.796000000     0.960000000
C    -1.512000000    -0.531000000    -1.345000000
H    -2.081000000    -1.274000000    -1.899000000
C    -0.378000000    -0.969000000    -0.663000000
H    -0.105000000    -2.017000000    -0.754000000
C     0.336000000    -0.012000000     0.027000000
H     1.327000000    -0.237000000     0.423000000
C     0.018000000     1.348000000     0.071000000
H     0.781000000     2.020000000     0.454000000
C    -1.002000000     1.777000000    -0.734000000
H    -1.284000000     2.824000000    -0.809000000
C    -1.854000000     0.841000000    -1.386000000
C    -2.891000000     1.296000000    -2.345000000
O    -3.398000000     2.398000000    -2.110000000
O    -3.613000000     0.574000000    -2.992000000
O    -3.264000000     5.143000000    -2.815000000
H    -3.976000000     5.505000000    -2.288000000
H    -3.322000000     4.197000000    -2.678000000
O    -3.372000000     5.772000000    -5.650000000
H    -3.264000000     5.621000000    -4.711000000
H    -3.215000000     4.916000000    -6.050000000
O    -4.175000000     3.230000000     0.411000000
H    -4.059000000     2.451000000     0.955000000
H    -3.927000000     2.946000000    -0.469000000
O    -4.063000000     0.744000000    -8.503000000
H    -4.748000000     0.865000000    -7.845000000
H    -3.487000000     1.500000000    -8.393000000
O    -4.421000000     1.992000000    -5.119000000
H    -3.854000000     1.734000000    -4.392000000
H    -4.865000000     1.184000000    -5.374000000
O    -6.059000000     2.173000000    -2.526000000
H    -5.106000000     2.172000000    -2.436000000
H    -6.249000000     1.415000000    -3.078000000
O    -4.808000000    -0.727000000    -1.020000000
H    -4.629000000    -0.329000000    -0.168000000
H    -4.222000000    -0.272000000    -1.625000000
O    -7.511000000     5.254000000    -4.708000000
H    -7.694000000     6.013000000    -4.155000000
H    -7.270000000     4.562000000    -4.092000000
O    -5.483000000     5.567000000     0.629000000
H    -5.043000000     6.407000000     0.503000000
H    -4.844000000     4.916000000     0.341000000
O    -7.435000000     1.122000000    -0.440000000
H    -7.807000000     0.343000000    -0.853000000
H    -6.911000000     1.531000000    -1.129000000
O    -7.230000000    -1.708000000    -1.961000000
H    -7.618000000    -2.579000000    -1.871000000
H    -6.417000000    -1.756000000    -1.459000000
O    -7.394000000     3.073000000     1.385000000
H    -6.514000000     3.442000000     1.311000000
H    -7.355000000     2.258000000     0.884000000
O    -6.256000000     0.198000000    -6.977000000
H    -7.182000000     0.330000000    -6.773000000
H    -5.885000000    -0.171000000    -6.175000000
O    -3.238000000     0.541000000     1.353000000
H    -2.608000000     0.309000000     2.035000000
H    -2.699000000     0.754000000     0.591000000
O    -6.075000000     5.778000000    -7.148000000
H    -6.076000000     5.463000000    -6.244000000
H    -5.235000000     6.227000000    -7.244000000
O    -5.893000000    -0.637000000    -4.095000000
H    -6.338000000    -0.938000000    -3.303000000
H    -5.126000000    -0.164000000    -3.774000000
O    -7.544000000     4.296000000    -1.690000000
H    -7.122000000     3.468000000    -1.921000000
H    -6.894000000     4.755000000    -1.158000000
O    -3.517000000     3.711000000    -7.445000000
H    -3.777000000     3.039000000    -6.816000000
H    -4.342000000     4.023000000    -7.817000000
O    -8.652000000     0.483000000    -3.738000000
H    -8.178000000    -0.343000000    -3.836000000
H    -9.198000000     0.355000000    -2.963000000
