215
-1433.03779
C    -1.958000000    -2.340000000    -4.161000000
H    -2.169000000    -2.918000000    -3.264000000
C    -0.679000000    -1.837000000    -4.310000000
C    -0.560000000    -0.816000000    -5.276000000
H     0.352000000    -0.225000000    -5.320000000
C     0.511000000    -2.214000000    -3.415000000
O     0.507000000    -3.615000000    -3.215000000
H     0.458000000    -1.726000000    -2.431000000
O     1.782000000    -1.835000000    -4.025000000
C     2.723000000    -1.198000000    -3.337000000
C     2.792000000     0.180000000    -3.390000000
H     2.035000000     0.682000000    -3.987000000
C     3.691000000     0.920000000    -2.620000000
O     3.615000000     2.300000000    -2.670000000
C     4.568000000     0.215000000    -1.747000000
C     5.397000000     1.018000000    -0.750000000
H     6.295000000     0.441000000    -0.521000000
C     4.642000000     1.320000000     0.468000000
C     4.784000000     0.509000000     1.595000000
H     5.319000000    -0.435000000     1.526000000
H     5.691000000     1.999000000    -1.130000000
C     4.590000000    -1.221000000    -1.762000000
H     5.230000000    -1.740000000    -1.054000000
C     3.612000000    -1.889000000    -2.542000000
C     3.427000000    -3.378000000    -2.561000000
H     4.403000000    -3.775000000    -2.273000000
H     3.210000000    -3.768000000    -3.557000000
C     2.332000000    -3.900000000    -1.643000000
C     2.690000000    -4.174000000    -0.354000000
H     3.753000000    -4.078000000    -0.146000000
C     1.005000000    -4.014000000    -1.975000000
C     0.112000000    -4.414000000    -1.012000000
H    -0.938000000    -4.469000000    -1.287000000
C     0.483000000    -4.774000000     0.244000000
O    -0.478000000    -5.069000000     1.182000000
C    -0.884000000    -3.922000000     1.934000000
C    -2.385000000    -3.614000000     1.987000000
C    -2.955000000    -3.339000000     3.269000000
H    -2.315000000    -3.353000000     4.147000000
C    -3.203000000    -3.679000000     0.886000000
H    -2.734000000    -3.954000000    -0.056000000
O    -0.245000000    -4.053000000     3.227000000
H    -0.442000000    -3.038000000     1.451000000
C     1.797000000    -4.633000000     0.642000000
C     2.229000000    -4.791000000     2.068000000
H     3.275000000    -5.085000000     1.963000000
H     1.743000000    -5.595000000     2.625000000
C     1.997000000    -3.528000000     2.880000000
C     3.018000000    -2.616000000     2.974000000
H     4.014000000    -2.875000000     2.623000000
C     0.755000000    -3.249000000     3.466000000
C     0.677000000    -2.120000000     4.298000000
H    -0.274000000    -1.948000000     4.796000000
C     1.665000000    -1.144000000     4.294000000
O     1.346000000     0.126000000     4.772000000
C     1.023000000     1.165000000     3.723000000
C    -0.295000000     1.968000000     3.952000000
C    -1.318000000     1.436000000     4.720000000
H    -1.272000000     0.452000000     5.179000000
C    -0.490000000     3.153000000     3.304000000
H     0.268000000     3.456000000     2.586000000
O     2.122000000     2.087000000     3.679000000
H     0.970000000     0.689000000     2.732000000
C     2.847000000    -1.421000000     3.654000000
C     3.971000000    -0.391000000     3.837000000
H     4.935000000    -0.848000000     3.605000000
H     4.092000000     0.073000000     4.818000000
C     3.938000000     0.747000000     2.694000000
C     3.076000000     1.824000000     2.722000000
C     3.046000000     2.715000000     1.682000000
H     2.376000000     3.561000000     1.813000000
C     3.760000000     2.404000000     0.497000000
O     3.654000000     3.286000000    -0.548000000
C     2.805000000     2.860000000    -1.531000000
H     2.114000000     2.107000000    -1.123000000
C     1.967000000     4.048000000    -2.105000000
C     1.698000000     4.054000000    -3.459000000
H     2.023000000     3.222000000    -4.079000000
C     1.523000000     5.102000000    -1.314000000
H     1.816000000     5.074000000    -0.268000000
C     0.834000000     6.149000000    -1.799000000
O     0.324000000     7.075000000    -0.927000000
C     0.464000000     6.146000000    -3.157000000
H    -0.189000000     6.953000000    -3.481000000
C     0.778000000     5.018000000    -3.977000000
O     0.240000000     5.004000000    -5.241000000
C     0.320000000     3.870000000    -6.046000000
C    -0.709000000     2.985000000    -6.109000000
H    -1.598000000     3.074000000    -5.490000000
C     1.421000000     3.634000000    -6.860000000
H     2.200000000     4.392000000    -6.855000000
C     1.626000000     2.429000000    -7.531000000
H     2.552000000     2.291000000    -8.083000000
C     0.618000000     1.480000000    -7.541000000
H     0.705000000     0.618000000    -8.198000000
C    -0.526000000     1.726000000    -6.777000000
O    -1.601000000     0.808000000    -6.805000000
C    -1.629000000    -0.369000000    -6.059000000
C    -2.858000000    -0.906000000    -5.767000000
H    -3.736000000    -0.424000000    -6.188000000
C    -3.072000000    -1.891000000    -4.880000000
O    -4.379000000    -2.348000000    -4.663000000
C    -4.635000000    -3.286000000    -3.705000000
C    -4.999000000    -2.892000000    -2.416000000
H    -5.258000000    -1.846000000    -2.276000000
C    -4.302000000    -4.619000000    -3.987000000
H    -4.000000000    -4.950000000    -4.977000000
C    -4.518000000    -5.633000000    -3.002000000
H    -4.386000000    -6.690000000    -3.218000000
C    -4.844000000    -5.201000000    -1.722000000
H    -5.063000000    -5.938000000    -0.954000000
C    -5.000000000    -3.846000000    -1.392000000
O    -5.387000000    -3.472000000    -0.142000000
C    -4.530000000    -3.402000000     0.971000000
C    -5.056000000    -3.066000000     2.206000000
H    -6.083000000    -2.744000000     2.357000000
C    -4.274000000    -3.001000000     3.361000000
O    -4.878000000    -2.722000000     4.547000000
C    -4.309000000    -1.863000000     5.525000000
C    -3.968000000    -0.551000000     5.094000000
H    -3.815000000    -0.294000000     4.049000000
C    -4.360000000    -2.187000000     6.867000000
H    -4.555000000    -3.183000000     7.256000000
C    -3.963000000    -1.226000000     7.784000000
H    -4.077000000    -1.482000000     8.835000000
C    -3.749000000     0.123000000     7.413000000
H    -3.645000000     0.915000000     8.151000000
C    -3.783000000     0.411000000     6.100000000
O    -3.456000000     1.708000000     5.751000000
C    -2.490000000     2.144000000     4.900000000
C    -2.701000000     3.347000000     4.246000000
H    -3.577000000     3.955000000     4.458000000
C    -1.685000000     3.847000000     3.447000000
O    -2.040000000     4.971000000     2.675000000
C    -1.022000000     5.814000000     2.255000000
C    -0.322000000     6.601000000     3.201000000
H    -0.447000000     6.573000000     4.280000000
C     0.672000000     7.474000000     2.734000000
H     1.299000000     7.978000000     3.465000000
C     0.858000000     7.576000000     1.403000000
H     1.700000000     8.208000000     1.131000000
C     0.115000000     6.941000000     0.462000000
C    -0.839000000     6.051000000     0.922000000
H    -1.411000000     5.546000000     0.148000000
C    -1.917000000    -0.572000000    -0.959000000
H    -2.686000000    -1.312000000    -1.166000000
C    -0.720000000    -0.933000000    -0.292000000
H    -0.488000000    -1.992000000    -0.381000000
C     0.218000000    -0.026000000     0.095000000
H     1.205000000    -0.344000000     0.355000000
C    -0.066000000     1.312000000     0.125000000
H     0.618000000     2.058000000     0.522000000
C    -1.278000000     1.714000000    -0.441000000
H    -1.516000000     2.758000000    -0.256000000
C    -2.153000000     0.797000000    -1.107000000
C    -3.436000000     1.293000000    -1.730000000
O    -3.718000000     2.461000000    -1.458000000
O    -4.292000000     0.478000000    -1.883000000
O    -2.589000000     4.177000000    -3.041000000
H    -1.991000000     4.529000000    -2.382000000
H    -3.150000000     3.571000000    -2.557000000
O    -2.603000000     6.216000000    -5.446000000
H    -3.431000000     5.741000000    -5.373000000
H    -1.950000000     5.616000000    -5.087000000
O    -6.838000000     3.351000000     2.768000000
H    -6.952000000     4.042000000     2.116000000
H    -6.021000000     2.919000000     2.519000000
O    -4.232000000     5.990000000     0.657000000
H    -4.039000000     6.536000000     1.419000000
H    -3.844000000     5.140000000     0.866000000
O    -7.577000000     5.207000000     0.883000000
H    -7.139000000     5.126000000     0.035000000
H    -7.617000000     6.150000000     1.042000000
O    -5.214000000     1.710000000    -6.491000000
H    -5.792000000     1.102000000    -6.952000000
H    -5.371000000     1.533000000    -5.564000000
O    -5.799000000     4.621000000    -1.415000000
H    -5.224000000     4.934000000    -0.716000000
H    -5.457000000     3.755000000    -1.637000000
O    -6.170000000    -0.131000000    -0.256000000
H    -6.811000000     0.576000000    -0.333000000
H    -5.438000000     0.148000000    -0.806000000
O    -7.805000000     1.768000000    -0.746000000
H    -8.656000000     2.078000000    -1.057000000
H    -7.200000000     2.480000000    -0.955000000
O    -9.004000000     0.724000000    -3.135000000
H    -9.666000000     0.593000000    -2.456000000
H    -9.269000000     0.139000000    -3.845000000
O    -9.170000000     0.549000000     1.575000000
H    -9.813000000     1.226000000     1.362000000
H    -8.322000000     0.973000000     1.438000000
O    -4.489000000     3.244000000     0.791000000
H    -4.192000000     2.508000000     1.327000000
H    -4.179000000     3.038000000    -0.091000000
O    -6.190000000    -1.436000000    -6.811000000
H    -6.739000000    -1.079000000    -6.113000000
H    -5.391000000    -1.718000000    -6.365000000
O    -3.717000000     0.668000000     1.591000000
H    -3.000000000     0.171000000     1.198000000
H    -4.496000000     0.383000000     1.113000000
O    -6.221000000     4.992000000    -5.205000000
H    -6.248000000     5.531000000    -4.415000000
H    -6.654000000     4.176000000    -4.953000000
O    -6.005000000     1.278000000    -3.747000000
H    -6.764000000     0.839000000    -3.364000000
H    -5.292000000     1.103000000    -3.133000000
O    -6.520000000     6.720000000    -3.329000000
H    -6.289000000     6.029000000    -2.709000000
H    -6.023000000     7.483000000    -3.033000000
O    -8.320000000    -1.987000000     0.795000000
H    -7.560000000    -1.604000000     0.357000000
H    -8.657000000    -1.283000000     1.350000000
O    -8.629000000     3.331000000    -4.456000000
H    -8.492000000     3.800000000    -3.633000000
H    -8.583000000     2.406000000    -4.214000000
