215
-1417.22393
C    -1.808000000    -0.241000000    -4.254000000
H    -1.018000000    -0.953000000    -4.474000000
C    -1.473000000     1.063000000    -3.887000000
C    -2.418000000     2.025000000    -3.505000000
H    -2.088000000     2.975000000    -3.092000000
C     0.038000000     1.346000000    -3.684000000
O     0.796000000     0.531000000    -4.600000000
H     0.170000000     1.097000000    -2.621000000
O     0.352000000     2.809000000    -3.789000000
C     1.174000000     3.353000000    -2.855000000
C     0.583000000     4.245000000    -1.936000000
H    -0.487000000     4.435000000    -1.940000000
C     1.324000000     4.696000000    -0.902000000
O     0.672000000     5.304000000     0.130000000
C     2.718000000     4.434000000    -0.788000000
C     3.360000000     4.807000000     0.520000000
H     4.413000000     5.032000000     0.339000000
C     3.207000000     3.609000000     1.508000000
C     4.222000000     2.593000000     1.542000000
H     5.180000000     2.594000000     1.028000000
H     2.955000000     5.719000000     0.963000000
C     3.309000000     3.611000000    -1.762000000
H     4.353000000     3.314000000    -1.692000000
C     2.533000000     2.962000000    -2.766000000
C     3.144000000     2.123000000    -3.896000000
H     4.213000000     2.339000000    -3.939000000
H     2.797000000     2.442000000    -4.881000000
C     3.017000000     0.605000000    -3.660000000
C     3.984000000    -0.098000000    -2.966000000
H     4.858000000     0.339000000    -2.491000000
C     1.861000000    -0.098000000    -4.100000000
C     1.760000000    -1.511000000    -3.912000000
H     0.886000000    -2.097000000    -4.182000000
C     2.707000000    -2.178000000    -3.164000000
O     2.459000000    -3.516000000    -2.797000000
C     1.948000000    -3.734000000    -1.439000000
C     0.821000000    -4.707000000    -1.533000000
C     0.467000000    -5.510000000    -0.443000000
H     1.254000000    -5.678000000     0.287000000
C    -0.008000000    -4.814000000    -2.626000000
H     0.172000000    -4.249000000    -3.537000000
O     2.954000000    -4.199000000    -0.499000000
H     1.551000000    -2.794000000    -1.029000000
C     3.851000000    -1.416000000    -2.706000000
C     4.830000000    -2.191000000    -1.831000000
H     5.844000000    -1.799000000    -1.940000000
H     4.801000000    -3.223000000    -2.189000000
C     4.434000000    -2.244000000    -0.361000000
C     4.876000000    -1.167000000     0.415000000
H     5.447000000    -0.394000000    -0.093000000
C     3.585000000    -3.208000000     0.215000000
C     3.289000000    -3.053000000     1.564000000
H     2.616000000    -3.776000000     2.017000000
C     3.625000000    -1.929000000     2.285000000
O     3.051000000    -1.678000000     3.521000000
C     1.937000000    -0.745000000     3.659000000
C     0.759000000    -1.359000000     4.382000000
C     0.229000000    -2.601000000     3.964000000
H     0.786000000    -3.149000000     3.209000000
C     0.012000000    -0.538000000     5.226000000
H     0.421000000     0.418000000     5.542000000
O     2.549000000     0.475000000     4.178000000
H     1.620000000    -0.414000000     2.659000000
C     4.560000000    -0.985000000     1.718000000
C     4.978000000     0.266000000     2.467000000
H     5.925000000     0.598000000     2.037000000
H     5.220000000     0.074000000     3.514000000
C     3.971000000     1.434000000     2.395000000
C     2.937000000     1.492000000     3.351000000
C     2.059000000     2.547000000     3.343000000
H     1.203000000     2.494000000     4.010000000
C     2.128000000     3.529000000     2.375000000
O     1.093000000     4.432000000     2.354000000
C     0.243000000     4.450000000     1.191000000
H     0.169000000     3.406000000     0.852000000
C    -1.232000000     4.650000000     1.533000000
C    -2.054000000     5.493000000     0.790000000
H    -1.725000000     6.310000000     0.153000000
C    -1.807000000     3.778000000     2.477000000
H    -1.135000000     3.127000000     3.031000000
C    -3.145000000     3.736000000     2.674000000
O    -3.634000000     2.993000000     3.669000000
C    -4.004000000     4.523000000     1.950000000
H    -5.066000000     4.381000000     2.136000000
C    -3.450000000     5.385000000     1.059000000
O    -4.196000000     6.120000000     0.181000000
C    -4.458000000     5.624000000    -1.162000000
C    -4.380000000     4.278000000    -1.496000000
H    -4.204000000     3.538000000    -0.719000000
C    -4.752000000     6.605000000    -2.073000000
H    -4.823000000     7.630000000    -1.718000000
C    -4.968000000     6.296000000    -3.454000000
H    -5.199000000     7.117000000    -4.128000000
C    -4.949000000     4.945000000    -3.863000000
H    -5.180000000     4.729000000    -4.903000000
C    -4.629000000     3.977000000    -2.839000000
O    -4.758000000     2.643000000    -3.103000000
C    -3.788000000     1.710000000    -3.540000000
C    -4.133000000     0.412000000    -3.949000000
H    -5.166000000     0.102000000    -4.083000000
C    -3.164000000    -0.502000000    -4.346000000
O    -3.661000000    -1.677000000    -4.766000000
C    -2.970000000    -2.771000000    -5.285000000
C    -2.739000000    -3.784000000    -4.424000000
H    -3.057000000    -3.692000000    -3.389000000
C    -2.425000000    -2.724000000    -6.544000000
H    -2.542000000    -1.796000000    -7.098000000
C    -1.764000000    -3.879000000    -6.975000000
H    -1.312000000    -3.889000000    -7.963000000
C    -1.563000000    -4.970000000    -6.105000000
H    -1.216000000    -5.906000000    -6.534000000
C    -2.004000000    -4.911000000    -4.830000000
O    -1.778000000    -5.893000000    -3.932000000
C    -1.136000000    -5.667000000    -2.696000000
C    -1.325000000    -6.532000000    -1.636000000
H    -2.115000000    -7.278000000    -1.674000000
C    -0.516000000    -6.441000000    -0.446000000
O    -0.624000000    -7.323000000     0.645000000
C    -0.355000000    -6.945000000     2.007000000
C    -1.149000000    -5.980000000     2.636000000
H    -2.027000000    -5.673000000     2.073000000
C     0.767000000    -7.515000000     2.679000000
H     1.395000000    -8.316000000     2.296000000
C     1.140000000    -7.069000000     3.912000000
H     1.916000000    -7.494000000     4.544000000
C     0.511000000    -5.883000000     4.333000000
H     0.760000000    -5.454000000     5.300000000
C    -0.584000000    -5.335000000     3.684000000
O    -1.336000000    -4.344000000     4.283000000
C    -0.915000000    -3.073000000     4.578000000
C    -1.663000000    -2.314000000     5.478000000
H    -2.570000000    -2.738000000     5.901000000
C    -1.132000000    -1.057000000     5.796000000
O    -1.816000000    -0.228000000     6.655000000
C    -2.208000000     1.088000000     6.420000000
C    -2.046000000     2.038000000     7.337000000
H    -1.708000000     1.705000000     8.315000000
C    -2.455000000     3.292000000     7.094000000
H    -2.372000000     4.060000000     7.859000000
C    -3.041000000     3.671000000     5.903000000
H    -3.523000000     4.638000000     5.783000000
C    -3.104000000     2.706000000     4.902000000
C    -2.806000000     1.387000000     5.214000000
H    -2.864000000     0.621000000     4.445000000
C    -0.705000000    -0.983000000     0.720000000
H    -0.617000000    -1.960000000     1.187000000
C     0.397000000    -0.179000000     0.506000000
H     1.398000000    -0.536000000     0.738000000
C     0.221000000     1.040000000    -0.159000000
H     1.150000000     1.549000000    -0.439000000
C    -0.976000000     1.613000000    -0.370000000
H    -1.067000000     2.577000000    -0.865000000
C    -2.071000000     0.902000000    -0.034000000
H    -3.014000000     1.443000000    -0.011000000
C    -1.964000000    -0.411000000     0.454000000
C    -3.144000000    -1.212000000     0.949000000
O    -4.279000000    -0.804000000     0.710000000
O    -3.020000000    -2.280000000     1.448000000
O    -6.546000000     2.931000000     4.316000000
H    -6.457000000     3.537000000     5.052000000
H    -5.645000000     2.716000000     4.073000000
O    -3.940000000    -4.344000000     0.212000000
H    -3.311000000    -5.055000000     0.327000000
H    -3.575000000    -3.617000000     0.718000000
O    -6.038000000    -3.562000000    -3.152000000
H    -5.892000000    -3.034000000    -2.367000000
H    -6.791000000    -4.111000000    -2.935000000
O    -7.715000000     0.861000000     1.092000000
H    -7.005000000     0.636000000     0.491000000
H    -7.292000000     0.933000000     1.947000000
O    -5.003000000    -6.499000000    -3.268000000
H    -5.285000000    -6.732000000    -2.384000000
H    -5.090000000    -5.546000000    -3.304000000
O    -5.152000000    -6.888000000     3.477000000
H    -5.513000000    -7.691000000     3.852000000
H    -4.479000000    -7.190000000     2.867000000
O    -6.159000000    -5.398000000     1.181000000
H    -5.299000000    -5.100000000     0.882000000
H    -5.981000000    -5.859000000     2.001000000
O    -5.755000000    -0.527000000     2.909000000
H    -5.255000000    -0.547000000     2.094000000
H    -5.338000000    -1.188000000     3.462000000
O    -9.943000000    -2.480000000     3.215000000
H   -10.413000000    -3.160000000     3.698000000
H    -9.032000000    -2.776000000     3.212000000
O    -4.526000000    -2.456000000     4.230000000
H    -4.604000000    -3.279000000     4.712000000
H    -4.053000000    -2.690000000     3.431000000
O    -8.068000000     1.800000000    -1.860000000
H    -7.239000000     1.513000000    -1.475000000
H    -7.818000000     2.205000000    -2.691000000
O    -8.121000000     0.517000000     3.985000000
H    -7.654000000     1.349000000     4.060000000
H    -7.498000000    -0.070000000     3.556000000
O    -7.475000000    -3.247000000     2.703000000
H    -6.518000000    -3.203000000     2.694000000
H    -7.725000000    -3.188000000     1.781000000
O    -9.041000000    -1.421000000     0.098000000
H    -8.130000000    -1.685000000    -0.028000000
H    -8.986000000    -0.558000000     0.509000000
O    -5.626000000     0.766000000    -1.178000000
H    -4.822000000     0.372000000    -0.840000000
H    -5.326000000     1.498000000    -1.716000000
O    -5.013000000    -1.945000000     6.819000000
H    -4.839000000    -1.998000000     5.879000000
H    -5.741000000    -2.550000000     6.963000000
O    -5.798000000    -7.242000000    -0.722000000
H    -6.408000000    -7.890000000    -0.368000000
H    -5.833000000    -6.516000000    -0.099000000
O    -6.347000000    -2.237000000    -0.189000000
H    -6.095000000    -3.091000000     0.164000000
H    -5.634000000    -1.652000000     0.068000000
O    -4.566000000    -5.007000000     5.389000000
H    -4.821000000    -5.631000000     4.710000000
H    -3.886000000    -5.460000000     5.888000000
