215
-1488.48819
C    -3.465000000     1.197000000    -4.055000000
H    -3.366000000     0.234000000    -4.547000000
C    -2.284000000     1.963000000    -3.823000000
C    -2.405000000     3.246000000    -3.271000000
H    -1.485000000     3.730000000    -2.955000000
C    -0.913000000     1.285000000    -4.081000000
O    -1.100000000     0.099000000    -4.911000000
H    -0.658000000     0.984000000    -3.054000000
O     0.066000000     2.284000000    -4.584000000
C     1.299000000     2.218000000    -3.909000000
C     1.495000000     3.134000000    -2.840000000
H     0.765000000     3.889000000    -2.558000000
C     2.666000000     3.015000000    -2.065000000
O     2.776000000     3.858000000    -0.944000000
C     3.609000000     2.024000000    -2.358000000
C     4.856000000     1.872000000    -1.551000000
H     5.509000000     1.306000000    -2.219000000
C     4.715000000     1.059000000    -0.224000000
C     5.010000000    -0.268000000    -0.205000000
H     5.455000000    -0.773000000    -1.059000000
H     5.328000000     2.817000000    -1.274000000
C     3.383000000     1.167000000    -3.514000000
H     4.103000000     0.368000000    -3.670000000
C     2.193000000     1.208000000    -4.242000000
C     1.847000000     0.162000000    -5.277000000
H     2.784000000    -0.209000000    -5.696000000
H     1.236000000     0.483000000    -6.123000000
C     1.093000000    -0.953000000    -4.621000000
C     1.811000000    -2.010000000    -4.017000000
H     2.883000000    -2.187000000    -4.062000000
C    -0.311000000    -0.989000000    -4.589000000
C    -0.944000000    -1.947000000    -3.901000000
H    -2.021000000    -1.827000000    -3.818000000
C    -0.291000000    -3.012000000    -3.397000000
O    -1.058000000    -3.948000000    -2.773000000
C    -0.951000000    -3.969000000    -1.360000000
C    -2.318000000    -3.964000000    -0.703000000
C    -2.542000000    -4.699000000     0.468000000
H    -1.690000000    -5.178000000     0.944000000
C    -3.450000000    -3.322000000    -1.334000000
H    -3.359000000    -2.692000000    -2.215000000
O    -0.024000000    -5.036000000    -0.938000000
H    -0.538000000    -3.002000000    -1.038000000
C     1.096000000    -3.081000000    -3.497000000
C     1.803000000    -4.311000000    -3.034000000
H     2.745000000    -4.439000000    -3.571000000
H     1.192000000    -5.195000000    -3.224000000
C     2.183000000    -4.204000000    -1.510000000
C     3.363000000    -3.603000000    -1.058000000
H     4.069000000    -3.218000000    -1.789000000
C     1.227000000    -4.621000000    -0.497000000
C     1.519000000    -4.493000000     0.856000000
H     0.778000000    -4.788000000     1.594000000
C     2.625000000    -3.705000000     1.240000000
O     2.638000000    -3.320000000     2.583000000
C     2.435000000    -1.890000000     2.893000000
C     1.465000000    -1.696000000     4.055000000
C     0.450000000    -2.586000000     4.330000000
H     0.347000000    -3.404000000     3.622000000
C     1.524000000    -0.483000000     4.782000000
H     2.328000000     0.235000000     4.649000000
O     3.673000000    -1.303000000     3.101000000
H     1.904000000    -1.473000000     2.025000000
C     3.597000000    -3.384000000     0.272000000
C     4.824000000    -2.573000000     0.706000000
H     5.595000000    -2.839000000    -0.021000000
H     5.210000000    -2.940000000     1.660000000
C     4.637000000    -1.101000000     0.886000000
C     4.176000000    -0.522000000     2.083000000
C     3.957000000     0.869000000     2.122000000
H     3.530000000     1.317000000     3.015000000
C     4.108000000     1.631000000     0.951000000
O     3.870000000     3.010000000     0.990000000
C     2.611000000     3.275000000     0.344000000
H     1.924000000     2.417000000     0.313000000
C     1.906000000     4.321000000     1.229000000
C     0.990000000     5.220000000     0.658000000
H     0.799000000     5.186000000    -0.411000000
C     2.044000000     4.340000000     2.592000000
H     2.788000000     3.722000000     3.089000000
C     1.215000000     5.133000000     3.333000000
O     1.382000000     5.233000000     4.674000000
C     0.293000000     5.976000000     2.706000000
H    -0.337000000     6.588000000     3.346000000
C     0.211000000     6.073000000     1.391000000
O    -0.700000000     6.892000000     0.862000000
C    -1.205000000     6.759000000    -0.457000000
C    -2.201000000     5.905000000    -0.730000000
H    -2.440000000     5.174000000     0.039000000
C    -0.710000000     7.628000000    -1.477000000
H     0.074000000     8.355000000    -1.277000000
C    -1.263000000     7.608000000    -2.791000000
H    -0.962000000     8.325000000    -3.550000000
C    -2.232000000     6.695000000    -3.027000000
H    -2.586000000     6.540000000    -4.043000000
C    -2.682000000     5.805000000    -2.003000000
O    -3.766000000     4.934000000    -2.230000000
C    -3.667000000     3.775000000    -2.980000000
C    -4.833000000     3.006000000    -3.244000000
H    -5.837000000     3.364000000    -3.031000000
C    -4.692000000     1.715000000    -3.739000000
O    -5.821000000     0.962000000    -3.971000000
C    -5.776000000    -0.372000000    -3.868000000
C    -5.847000000    -0.961000000    -2.609000000
H    -5.860000000    -0.343000000    -1.715000000
C    -5.664000000    -1.189000000    -5.000000000
H    -5.617000000    -0.647000000    -5.942000000
C    -5.726000000    -2.568000000    -4.938000000
H    -5.599000000    -3.221000000    -5.797000000
C    -5.726000000    -3.145000000    -3.654000000
H    -5.628000000    -4.220000000    -3.522000000
C    -5.936000000    -2.378000000    -2.504000000
O    -5.875000000    -2.865000000    -1.237000000
C    -4.722000000    -3.402000000    -0.660000000
C    -4.874000000    -4.155000000     0.507000000
H    -5.819000000    -4.106000000     1.043000000
C    -3.760000000    -4.836000000     1.082000000
O    -3.805000000    -5.692000000     2.175000000
C    -2.926000000    -5.525000000     3.174000000
C    -2.718000000    -4.337000000     3.850000000
H    -3.099000000    -3.388000000     3.482000000
C    -2.252000000    -6.721000000     3.614000000
H    -2.345000000    -7.667000000     3.088000000
C    -1.372000000    -6.674000000     4.725000000
H    -0.852000000    -7.552000000     5.099000000
C    -1.151000000    -5.429000000     5.262000000
H    -0.387000000    -5.274000000     6.019000000
C    -1.826000000    -4.268000000     4.891000000
O    -1.575000000    -3.113000000     5.576000000
C    -0.479000000    -2.323000000     5.305000000
C    -0.426000000    -1.163000000     6.033000000
H    -1.145000000    -1.015000000     6.834000000
C     0.570000000    -0.218000000     5.808000000
O     0.585000000     0.953000000     6.554000000
C     1.493000000     1.944000000     6.477000000
C     2.676000000     2.146000000     7.199000000
H     3.086000000     1.259000000     7.675000000
C     3.482000000     3.280000000     6.935000000
H     4.457000000     3.261000000     7.417000000
C     3.031000000     4.306000000     6.135000000
H     3.501000000     5.263000000     5.924000000
C     1.793000000     4.180000000     5.490000000
C     1.043000000     2.980000000     5.614000000
H     0.205000000     2.805000000     4.944000000
C    -1.186000000    -0.046000000     1.873000000
H    -1.787000000    -0.340000000     2.730000000
C    -0.519000000    -1.010000000     1.128000000
H    -0.396000000    -2.050000000     1.419000000
C     0.258000000    -0.618000000    -0.013000000
H     0.799000000    -1.349000000    -0.537000000
C     0.094000000     0.682000000    -0.465000000
H     0.634000000     1.016000000    -1.346000000
C    -0.539000000     1.635000000     0.315000000
H    -0.530000000     2.670000000    -0.016000000
C    -1.126000000     1.287000000     1.501000000
C    -1.816000000     2.373000000     2.361000000
O    -2.406000000     3.293000000     1.826000000
O    -1.910000000     2.242000000     3.551000000
O    -6.291000000    -2.697000000     5.491000000
H    -6.106000000    -2.292000000     4.643000000
H    -7.246000000    -2.759000000     5.523000000
O    -3.343000000     2.253000000     7.143000000
H    -3.484000000     2.102000000     6.209000000
H    -4.209000000     2.476000000     7.484000000
O    -3.648000000    -0.783000000     7.154000000
H    -3.897000000    -1.107000000     6.289000000
H    -3.251000000     0.071000000     6.985000000
O    -0.377000000     7.053000000     6.254000000
H     0.541000000     7.118000000     5.992000000
H    -0.666000000     6.210000000     5.907000000
O    -6.051000000     3.946000000     7.658000000
H    -6.093000000     4.270000000     8.557000000
H    -5.379000000     4.485000000     7.240000000
O    -1.930000000     4.696000000     5.317000000
H    -2.107000000     3.958000000     4.734000000
H    -2.750000000     5.190000000     5.334000000
O    -3.743000000     6.681000000     5.058000000
H    -4.322000000     7.432000000     4.926000000
H    -3.573000000     6.351000000     4.176000000
O    -6.418000000     3.416000000     0.911000000
H    -5.701000000     2.831000000     0.669000000
H    -6.843000000     3.630000000     0.081000000
O    -5.665000000    -1.408000000     3.155000000
H    -5.176000000    -0.603000000     3.329000000
H    -6.264000000    -1.176000000     2.446000000
O    -3.031000000     5.716000000     2.687000000
H    -2.177000000     6.050000000     2.412000000
H    -2.946000000     4.765000000     2.630000000
O    -4.256000000     2.097000000     0.024000000
H    -3.602000000     2.550000000     0.556000000
H    -4.070000000     2.376000000    -0.872000000
O    -9.171000000     0.667000000     4.081000000
H    -9.389000000     1.545000000     4.395000000
H    -8.214000000     0.652000000     4.058000000
O    -3.792000000     5.957000000     7.735000000
H    -3.646000000     6.418000000     6.909000000
H    -2.946000000     5.559000000     7.940000000
O    -5.836000000     5.076000000     3.214000000
H    -5.964000000     4.476000000     2.479000000
H    -5.247000000     5.750000000     2.874000000
O    -1.104000000     3.099000000     8.217000000
H    -1.887000000     2.676000000     7.865000000
H    -0.558000000     3.270000000     7.450000000
O    -3.090000000     0.120000000     4.646000000
H    -2.530000000    -0.594000000     4.342000000
H    -2.564000000     0.909000000     4.517000000
O    -6.517000000     1.154000000     5.064000000
H    -5.693000000     1.529000000     4.753000000
H    -6.424000000     1.130000000     6.017000000
O    -7.936000000     3.519000000     5.674000000
H    -7.373000000     3.699000000     6.426000000
H    -7.539000000     2.757000000     5.254000000
O    -4.353000000     3.037000000     4.485000000
H    -3.591000000     2.874000000     3.930000000
H    -4.801000000     3.773000000     4.067000000
