215
-1437.57818
C    -1.679000000    -2.241000000    -4.187000000
H    -1.551000000    -3.076000000    -3.503000000
C    -0.439000000    -1.652000000    -4.556000000
C    -0.504000000    -0.539000000    -5.327000000
H     0.404000000     0.035000000    -5.496000000
C     0.876000000    -2.137000000    -3.925000000
O     0.809000000    -3.565000000    -3.564000000
H     0.912000000    -1.544000000    -2.999000000
O     2.063000000    -1.744000000    -4.579000000
C     2.992000000    -1.178000000    -3.638000000
C     3.057000000     0.182000000    -3.612000000
H     2.559000000     0.729000000    -4.409000000
C     3.950000000     0.808000000    -2.719000000
O     3.843000000     2.252000000    -2.596000000
C     4.490000000     0.034000000    -1.725000000
C     5.476000000     0.669000000    -0.779000000
H     6.317000000    -0.004000000    -0.598000000
C     4.735000000     1.078000000     0.561000000
C     4.710000000     0.230000000     1.673000000
H     5.332000000    -0.661000000     1.659000000
H     5.894000000     1.535000000    -1.296000000
C     4.393000000    -1.367000000    -1.768000000
H     4.965000000    -1.989000000    -1.085000000
C     3.571000000    -1.979000000    -2.625000000
C     3.547000000    -3.481000000    -2.629000000
H     4.449000000    -3.932000000    -2.212000000
H     3.377000000    -3.875000000    -3.633000000
C     2.396000000    -3.924000000    -1.743000000
C     2.594000000    -4.179000000    -0.441000000
H     3.569000000    -4.140000000     0.039000000
C     1.101000000    -3.978000000    -2.295000000
C     0.056000000    -4.354000000    -1.413000000
H    -0.965000000    -4.413000000    -1.781000000
C     0.213000000    -4.567000000    -0.067000000
O    -0.966000000    -4.799000000     0.687000000
C    -1.459000000    -3.781000000     1.579000000
C    -2.990000000    -3.723000000     1.670000000
C    -3.657000000    -2.970000000     2.692000000
H    -2.939000000    -2.365000000     3.240000000
C    -3.771000000    -4.275000000     0.713000000
H    -3.221000000    -4.813000000    -0.055000000
O    -0.782000000    -3.896000000     2.923000000
H    -1.115000000    -2.850000000     1.103000000
C     1.537000000    -4.552000000     0.440000000
C     1.790000000    -4.880000000     1.908000000
H     2.821000000    -5.201000000     2.074000000
H     1.154000000    -5.723000000     2.186000000
C     1.590000000    -3.565000000     2.730000000
C     2.720000000    -2.735000000     3.067000000
H     3.710000000    -3.036000000     2.736000000
C     0.346000000    -3.185000000     3.222000000
C     0.163000000    -2.056000000     3.980000000
H    -0.829000000    -1.877000000     4.387000000
C     1.211000000    -1.202000000     4.093000000
O     0.960000000     0.012000000     4.687000000
C     0.915000000     1.152000000     3.744000000
C    -0.263000000     2.051000000     4.153000000
C    -1.318000000     1.573000000     5.004000000
H    -1.351000000     0.571000000     5.425000000
C    -0.266000000     3.384000000     3.737000000
H     0.550000000     3.762000000     3.125000000
O     2.140000000     1.815000000     3.794000000
H     0.682000000     0.716000000     2.761000000
C     2.525000000    -1.536000000     3.733000000
C     3.761000000    -0.611000000     3.925000000
H     4.715000000    -1.143000000     3.921000000
H     3.710000000    -0.287000000     4.966000000
C     3.864000000     0.470000000     2.801000000
C     3.081000000     1.628000000     2.801000000
C     3.248000000     2.567000000     1.816000000
H     2.850000000     3.576000000     1.887000000
C     4.030000000     2.259000000     0.707000000
O     4.043000000     3.077000000    -0.366000000
C     3.158000000     2.812000000    -1.443000000
H     2.408000000     2.117000000    -1.036000000
C     2.322000000     4.073000000    -1.838000000
C     1.931000000     4.266000000    -3.181000000
H     2.379000000     3.673000000    -3.974000000
C     1.867000000     4.861000000    -0.776000000
H     2.188000000     4.671000000     0.245000000
C     0.864000000     5.761000000    -1.085000000
O     0.535000000     6.806000000    -0.282000000
C     0.468000000     5.907000000    -2.431000000
H    -0.256000000     6.673000000    -2.697000000
C     0.937000000     5.134000000    -3.504000000
O     0.213000000     5.146000000    -4.691000000
C     0.264000000     4.130000000    -5.604000000
C    -0.798000000     3.197000000    -5.583000000
H    -1.636000000     3.302000000    -4.900000000
C     1.220000000     3.946000000    -6.627000000
H     1.975000000     4.727000000    -6.666000000
C     1.172000000     2.846000000    -7.473000000
H     2.096000000     2.686000000    -8.022000000
C     0.200000000     1.887000000    -7.331000000
H     0.207000000     1.157000000    -8.137000000
C    -0.808000000     2.038000000    -6.340000000
O    -1.877000000     1.213000000    -6.277000000
C    -1.740000000    -0.055000000    -5.794000000
C    -2.931000000    -0.664000000    -5.458000000
H    -3.901000000    -0.324000000    -5.810000000
C    -2.909000000    -1.729000000    -4.618000000
O    -4.119000000    -2.383000000    -4.294000000
C    -4.261000000    -3.561000000    -3.570000000
C    -4.957000000    -3.521000000    -2.372000000
H    -5.465000000    -2.600000000    -2.097000000
C    -3.735000000    -4.782000000    -4.019000000
H    -3.097000000    -4.780000000    -4.900000000
C    -3.863000000    -5.933000000    -3.225000000
H    -3.287000000    -6.798000000    -3.543000000
C    -4.569000000    -5.864000000    -1.982000000
H    -4.594000000    -6.662000000    -1.244000000
C    -5.244000000    -4.696000000    -1.633000000
O    -5.878000000    -4.638000000    -0.445000000
C    -5.168000000    -4.072000000     0.583000000
C    -5.726000000    -3.227000000     1.534000000
H    -6.771000000    -3.003000000     1.336000000
C    -5.002000000    -2.672000000     2.614000000
O    -5.633000000    -1.733000000     3.372000000
C    -5.074000000    -1.233000000     4.592000000
C    -4.522000000     0.027000000     4.611000000
H    -4.678000000     0.745000000     3.810000000
C    -4.972000000    -2.070000000     5.755000000
H    -5.395000000    -3.070000000     5.704000000
C    -4.457000000    -1.444000000     6.936000000
H    -4.430000000    -2.006000000     7.866000000
C    -3.956000000    -0.145000000     6.935000000
H    -3.526000000     0.202000000     7.871000000
C    -3.927000000     0.549000000     5.762000000
O    -3.566000000     1.880000000     5.813000000
C    -2.382000000     2.404000000     5.235000000
C    -2.335000000     3.762000000     4.885000000
H    -3.162000000     4.458000000     5.001000000
C    -1.210000000     4.295000000     4.206000000
O    -1.152000000     5.640000000     3.955000000
C    -0.147000000     6.248000000     3.213000000
C     0.844000000     7.041000000     3.847000000
H     1.012000000     6.866000000     4.907000000
C     1.828000000     7.651000000     3.068000000
H     2.658000000     8.157000000     3.553000000
C     1.801000000     7.494000000     1.658000000
H     2.550000000     7.923000000     0.996000000
C     0.703000000     6.877000000     1.067000000
C    -0.294000000     6.222000000     1.882000000
H    -1.037000000     5.659000000     1.323000000
C    -2.740000000    -0.517000000    -1.443000000
H    -3.748000000    -0.841000000    -1.690000000
C    -1.720000000    -1.357000000    -1.107000000
H    -1.878000000    -2.430000000    -1.039000000
C    -0.428000000    -0.869000000    -0.980000000
H     0.436000000    -1.484000000    -0.816000000
C    -0.169000000     0.528000000    -0.954000000
H     0.811000000     0.939000000    -0.724000000
C    -1.236000000     1.407000000    -1.280000000
H    -1.100000000     2.483000000    -1.217000000
C    -2.586000000     0.893000000    -1.577000000
C    -3.742000000     1.766000000    -2.109000000
O    -3.616000000     2.971000000    -2.248000000
O    -4.808000000     1.197000000    -2.254000000
O    -2.811000000     5.440000000    -2.813000000
H    -3.236000000     5.237000000    -3.646000000
H    -2.780000000     4.603000000    -2.350000000
O    -3.853000000     6.199000000    -6.778000000
H    -4.071000000     5.828000000    -5.923000000
H    -2.909000000     6.349000000    -6.741000000
O    -5.774000000     3.432000000     3.461000000
H    -6.460000000     3.119000000     2.871000000
H    -4.961000000     3.106000000     3.077000000
O    -5.019000000     1.121000000    -8.451000000
H    -5.278000000     1.507000000    -7.614000000
H    -5.691000000     0.465000000    -8.631000000
O    -3.240000000     4.128000000     0.261000000
H    -3.600000000     3.648000000    -0.484000000
H    -3.388000000     3.552000000     1.011000000
O    -2.986000000     8.225000000    -3.416000000
H    -2.927000000     7.309000000    -3.144000000
H    -2.076000000     8.505000000    -3.514000000
O    -4.850000000     4.112000000    -4.622000000
H    -4.873000000     3.435000000    -5.298000000
H    -4.356000000     3.717000000    -3.904000000
O    -4.965000000     0.304000000     0.593000000
H    -5.827000000     0.132000000     0.972000000
H    -5.146000000     0.528000000    -0.320000000
O    -7.196000000     1.953000000    -1.739000000
H    -6.344000000     1.637000000    -2.042000000
H    -7.037000000     2.862000000    -1.485000000
O    -7.943000000     0.333000000     0.296000000
H    -7.865000000     0.764000000    -0.556000000
H    -7.921000000     1.050000000     0.929000000
O    -9.672000000     1.218000000    -2.707000000
H    -8.725000000     1.135000000    -2.597000000
H    -9.933000000     1.869000000    -2.055000000
O    -3.608000000     2.078000000     2.079000000
H    -2.752000000     1.733000000     2.334000000
H    -3.933000000     1.455000000     1.429000000
O    -7.597000000    -2.274000000    -3.329000000
H    -7.974000000    -2.067000000    -4.185000000
H    -7.904000000    -3.161000000    -3.141000000
O    -3.136000000     6.686000000    -0.364000000
H    -3.139000000     6.358000000    -1.263000000
H    -3.324000000     5.915000000     0.172000000
O    -5.919000000    -2.527000000    -6.511000000
H    -6.864000000    -2.381000000    -6.533000000
H    -5.612000000    -1.999000000    -5.774000000
O    -1.886000000    -0.269000000     1.676000000
H    -2.413000000    -1.061000000     1.573000000
H    -1.767000000     0.057000000     0.784000000
O    -6.040000000     0.142000000    -4.215000000
H    -5.448000000     0.532000000    -3.572000000
H    -6.368000000    -0.650000000    -3.790000000
O    -6.473000000     2.026000000    -6.169000000
H    -6.404000000     1.476000000    -5.388000000
H    -7.303000000     2.490000000    -6.062000000
O    -7.385000000     5.347000000    -4.101000000
H    -6.549000000     4.889000000    -4.183000000
H    -7.997000000     4.823000000    -4.618000000
