215
-1451.89414
C    -0.983000000    -2.869000000    -4.184000000
H    -1.048000000    -3.737000000    -3.532000000
C     0.182000000    -2.025000000    -4.211000000
C     0.154000000    -0.911000000    -5.016000000
H     0.949000000    -0.173000000    -5.090000000
C     1.378000000    -2.380000000    -3.323000000
O     1.474000000    -3.801000000    -2.971000000
H     1.166000000    -1.790000000    -2.420000000
O     2.645000000    -1.880000000    -3.826000000
C     3.456000000    -1.183000000    -2.922000000
C     3.330000000     0.210000000    -3.024000000
H     2.765000000     0.664000000    -3.833000000
C     3.934000000     0.999000000    -2.058000000
O     3.677000000     2.348000000    -2.067000000
C     4.663000000     0.390000000    -1.044000000
C     5.370000000     1.190000000     0.027000000
H     6.239000000     0.647000000     0.407000000
C     4.460000000     1.544000000     1.224000000
C     4.406000000     0.713000000     2.392000000
H     5.099000000    -0.120000000     2.475000000
H     5.822000000     2.101000000    -0.371000000
C     4.786000000    -1.039000000    -0.963000000
H     5.321000000    -1.495000000    -0.134000000
C     4.150000000    -1.837000000    -1.859000000
C     4.192000000    -3.370000000    -1.760000000
H     5.109000000    -3.678000000    -1.252000000
H     4.143000000    -3.777000000    -2.772000000
C     2.962000000    -3.864000000    -1.008000000
C     3.001000000    -3.947000000     0.386000000
H     3.890000000    -3.643000000     0.933000000
C     1.773000000    -4.151000000    -1.665000000
C     0.689000000    -4.621000000    -0.894000000
H    -0.253000000    -4.647000000    -1.435000000
C     0.705000000    -4.791000000     0.417000000
O    -0.556000000    -5.033000000     1.023000000
C    -1.202000000    -3.869000000     1.570000000
C    -2.702000000    -3.881000000     1.367000000
C    -3.487000000    -2.912000000     2.089000000
H    -3.104000000    -2.346000000     2.935000000
C    -3.307000000    -4.740000000     0.372000000
H    -2.797000000    -5.505000000    -0.208000000
O    -0.987000000    -3.791000000     3.012000000
H    -0.836000000    -2.922000000     1.146000000
C     1.854000000    -4.468000000     1.081000000
C     1.850000000    -4.628000000     2.606000000
H     2.797000000    -4.924000000     3.062000000
H     1.144000000    -5.399000000     2.926000000
C     1.462000000    -3.327000000     3.223000000
C     2.492000000    -2.448000000     3.666000000
H     3.556000000    -2.611000000     3.516000000
C     0.080000000    -3.012000000     3.397000000
C    -0.194000000    -1.799000000     4.102000000
H    -1.248000000    -1.579000000     4.254000000
C     0.822000000    -0.894000000     4.464000000
O     0.447000000     0.329000000     4.991000000
C     0.433000000     1.500000000     4.105000000
C    -0.782000000     2.377000000     4.288000000
C    -2.084000000     1.844000000     4.466000000
H    -2.193000000     0.764000000     4.526000000
C    -0.603000000     3.729000000     4.103000000
H     0.376000000     4.201000000     4.082000000
O     1.663000000     2.227000000     4.257000000
H     0.310000000     1.074000000     3.098000000
C     2.151000000    -1.202000000     4.196000000
C     3.301000000    -0.104000000     4.470000000
H     4.263000000    -0.586000000     4.659000000
H     3.111000000     0.367000000     5.437000000
C     3.422000000     0.896000000     3.361000000
C     2.672000000     2.016000000     3.326000000
C     2.757000000     2.860000000     2.213000000
H     2.175000000     3.776000000     2.267000000
C     3.604000000     2.641000000     1.147000000
O     3.611000000     3.368000000     0.037000000
C     2.851000000     2.955000000    -1.033000000
H     2.160000000     2.182000000    -0.665000000
C     2.087000000     4.135000000    -1.652000000
C     1.521000000     3.892000000    -2.908000000
H     1.718000000     2.928000000    -3.371000000
C     1.805000000     5.305000000    -0.953000000
H     2.225000000     5.540000000     0.022000000
C     0.901000000     6.197000000    -1.469000000
O     0.402000000     7.221000000    -0.671000000
C     0.243000000     5.949000000    -2.669000000
H    -0.496000000     6.665000000    -3.019000000
C     0.668000000     4.858000000    -3.472000000
O    -0.091000000     4.675000000    -4.647000000
C     0.137000000     3.794000000    -5.547000000
C    -0.593000000     2.577000000    -5.576000000
H    -1.261000000     2.411000000    -4.735000000
C     1.180000000     3.927000000    -6.521000000
H     1.936000000     4.705000000    -6.458000000
C     1.418000000     2.979000000    -7.537000000
H     2.257000000     3.160000000    -8.204000000
C     0.592000000     1.903000000    -7.605000000
H     0.761000000     1.187000000    -8.405000000
C    -0.335000000     1.652000000    -6.606000000
O    -1.047000000     0.474000000    -6.631000000
C    -0.994000000    -0.629000000    -5.795000000
C    -2.025000000    -1.465000000    -5.789000000
H    -2.902000000    -1.248000000    -6.393000000
C    -2.032000000    -2.608000000    -5.015000000
O    -3.198000000    -3.341000000    -5.010000000
C    -3.446000000    -4.363000000    -4.236000000
C    -3.924000000    -4.150000000    -2.946000000
H    -3.979000000    -3.120000000    -2.604000000
C    -3.500000000    -5.631000000    -4.864000000
H    -3.253000000    -5.822000000    -5.905000000
C    -4.000000000    -6.717000000    -4.093000000
H    -4.027000000    -7.707000000    -4.541000000
C    -4.560000000    -6.457000000    -2.821000000
H    -4.945000000    -7.321000000    -2.285000000
C    -4.504000000    -5.178000000    -2.257000000
O    -5.180000000    -4.977000000    -1.059000000
C    -4.655000000    -4.460000000     0.090000000
C    -5.425000000    -3.557000000     0.752000000
H    -6.453000000    -3.343000000     0.471000000
C    -4.818000000    -2.776000000     1.725000000
O    -5.574000000    -1.856000000     2.332000000
C    -5.299000000    -1.194000000     3.545000000
C    -5.071000000     0.192000000     3.477000000
H    -5.147000000     0.728000000     2.535000000
C    -5.209000000    -1.825000000     4.749000000
H    -5.495000000    -2.873000000     4.713000000
C    -4.852000000    -1.195000000     5.943000000
H    -4.642000000    -1.681000000     6.892000000
C    -4.633000000     0.213000000     5.883000000
H    -4.312000000     0.765000000     6.763000000
C    -4.727000000     0.848000000     4.666000000
O    -4.455000000     2.190000000     4.589000000
C    -3.205000000     2.673000000     4.530000000
C    -3.012000000     4.013000000     4.257000000
H    -3.828000000     4.731000000     4.300000000
C    -1.777000000     4.545000000     3.881000000
O    -1.670000000     5.801000000     3.574000000
C    -0.667000000     6.447000000     2.855000000
C     0.371000000     6.965000000     3.577000000
H     0.388000000     6.983000000     4.664000000
C     1.453000000     7.341000000     2.837000000
H     2.252000000     7.704000000     3.479000000
C     1.463000000     7.508000000     1.459000000
H     2.378000000     7.837000000     0.973000000
C     0.364000000     7.116000000     0.726000000
C    -0.672000000     6.454000000     1.454000000
H    -1.564000000     6.111000000     0.937000000
C    -1.894000000    -0.432000000    -1.842000000
H    -2.457000000    -1.267000000    -2.251000000
C    -1.063000000    -0.773000000    -0.812000000
H    -0.936000000    -1.832000000    -0.602000000
C    -0.375000000     0.265000000    -0.156000000
H     0.168000000     0.098000000     0.761000000
C    -0.574000000     1.578000000    -0.508000000
H     0.096000000     2.345000000    -0.129000000
C    -1.396000000     1.891000000    -1.526000000
H    -1.591000000     2.945000000    -1.705000000
C    -2.150000000     0.885000000    -2.169000000
C    -3.193000000     1.325000000    -3.129000000
O    -3.355000000     2.527000000    -3.290000000
O    -4.008000000     0.536000000    -3.587000000
O    -3.158000000     4.706000000    -4.790000000
H    -3.852000000     4.319000000    -5.325000000
H    -2.896000000     4.005000000    -4.193000000
O    -1.868000000     6.611000000    -6.156000000
H    -2.126000000     5.884000000    -5.588000000
H    -0.995000000     6.856000000    -5.848000000
O    -6.711000000     1.795000000    -6.558000000
H    -6.027000000     1.306000000    -7.017000000
H    -6.531000000     1.646000000    -5.630000000
O    -4.866000000     4.422000000     1.921000000
H    -5.489000000     4.299000000     1.205000000
H    -4.049000000     4.046000000     1.595000000
O    -4.459000000     3.945000000    -1.463000000
H    -4.018000000     3.377000000    -2.094000000
H    -4.323000000     3.515000000    -0.618000000
O    -4.225000000     6.572000000    -2.457000000
H    -4.247000000     5.670000000    -2.134000000
H    -3.795000000     6.510000000    -3.309000000
O    -3.562000000    -0.004000000    -8.692000000
H    -3.846000000    -0.884000000    -8.937000000
H    -4.225000000     0.575000000    -9.069000000
O    -8.082000000     3.756000000    -3.112000000
H    -7.354000000     3.238000000    -3.456000000
H    -8.777000000     3.653000000    -3.763000000
O    -3.936000000     1.873000000    -6.460000000
H    -3.258000000     1.257000000    -6.737000000
H    -4.113000000     1.641000000    -5.548000000
O    -7.390000000    -0.378000000    -1.968000000
H    -7.941000000    -0.407000000    -1.186000000
H    -7.696000000    -1.110000000    -2.503000000
O    -3.234000000     3.490000000    -8.525000000
H    -4.008000000     4.028000000    -8.690000000
H    -3.528000000     2.835000000    -7.892000000
O    -7.089000000     5.841000000    -1.648000000
H    -7.318000000     5.253000000    -2.368000000
H    -6.163000000     6.039000000    -1.785000000
O    -7.093000000     3.526000000    -0.068000000
H    -6.473000000     3.148000000    -0.691000000
H    -7.309000000     4.383000000    -0.435000000
O    -7.583000000    -3.041000000    -2.862000000
H    -6.952000000    -2.512000000    -3.350000000
H    -7.430000000    -3.936000000    -3.166000000
O    -3.454000000     2.042000000     0.606000000
H    -4.309000000     1.612000000     0.578000000
H    -2.875000000     1.455000000     0.119000000
O    -5.332000000     0.014000000    -0.164000000
H    -5.462000000    -0.573000000     0.580000000
H    -6.034000000    -0.213000000    -0.774000000
O    -5.524000000    -1.270000000    -4.843000000
H    -5.029000000    -0.658000000    -4.299000000
H    -4.855000000    -1.771000000    -5.309000000
O    -8.061000000    -1.095000000    -5.988000000
H    -7.144000000    -1.152000000    -5.719000000
H    -8.543000000    -0.972000000    -5.170000000
O    -6.547000000     1.506000000    -3.906000000
H    -5.767000000     1.381000000    -3.367000000
H    -7.129000000     0.787000000    -3.656000000
