215
-1466.57221
C    -1.074000000    -2.599000000    -3.959000000
H    -1.168000000    -3.329000000    -3.159000000
C     0.141000000    -1.936000000    -4.194000000
C     0.237000000    -1.049000000    -5.300000000
H     1.081000000    -0.394000000    -5.498000000
C     1.281000000    -2.134000000    -3.302000000
O     1.448000000    -3.596000000    -2.994000000
H     1.117000000    -1.596000000    -2.357000000
O     2.472000000    -1.816000000    -3.945000000
C     3.325000000    -0.982000000    -3.192000000
C     3.057000000     0.384000000    -3.235000000
H     2.291000000     0.789000000    -3.891000000
C     3.713000000     1.224000000    -2.320000000
O     3.416000000     2.556000000    -2.361000000
C     4.605000000     0.680000000    -1.432000000
C     5.319000000     1.682000000    -0.467000000
H     6.284000000     1.259000000    -0.182000000
C     4.441000000     2.011000000     0.805000000
C     4.480000000     1.081000000     1.867000000
H     5.167000000     0.247000000     1.749000000
H     5.480000000     2.705000000    -0.811000000
C     4.726000000    -0.686000000    -1.270000000
H     5.340000000    -1.061000000    -0.455000000
C     4.011000000    -1.554000000    -2.111000000
C     4.120000000    -3.042000000    -1.907000000
H     5.065000000    -3.236000000    -1.395000000
H     4.168000000    -3.592000000    -2.849000000
C     3.034000000    -3.634000000    -1.088000000
C     3.291000000    -4.030000000     0.231000000
H     4.252000000    -4.028000000     0.738000000
C     1.825000000    -3.952000000    -1.749000000
C     0.794000000    -4.488000000    -0.954000000
H    -0.213000000    -4.617000000    -1.342000000
C     1.045000000    -4.765000000     0.388000000
O    -0.034000000    -5.138000000     1.159000000
C    -0.785000000    -4.035000000     1.773000000
C    -2.332000000    -4.117000000     1.706000000
C    -3.171000000    -3.377000000     2.535000000
H    -2.734000000    -2.884000000     3.399000000
C    -2.938000000    -4.984000000     0.715000000
H    -2.411000000    -5.451000000    -0.113000000
O    -0.372000000    -3.993000000     3.152000000
H    -0.451000000    -3.099000000     1.302000000
C     2.242000000    -4.496000000     1.009000000
C     2.387000000    -4.640000000     2.547000000
H     3.419000000    -4.906000000     2.785000000
H     1.809000000    -5.453000000     2.991000000
C     1.975000000    -3.285000000     3.123000000
C     2.927000000    -2.295000000     3.332000000
H     3.956000000    -2.402000000     3.000000000
C     0.627000000    -3.081000000     3.424000000
C     0.265000000    -1.883000000     4.002000000
H    -0.780000000    -1.731000000     4.260000000
C     1.206000000    -0.845000000     4.180000000
O     0.782000000     0.292000000     4.689000000
C     0.628000000     1.518000000     3.869000000
C    -0.613000000     2.315000000     4.140000000
C    -1.838000000     1.733000000     4.378000000
H    -1.846000000     0.647000000     4.320000000
C    -0.588000000     3.730000000     4.091000000
H     0.327000000     4.290000000     3.916000000
O     1.793000000     2.322000000     3.951000000
H     0.629000000     1.185000000     2.820000000
C     2.539000000    -1.028000000     3.756000000
C     3.550000000     0.034000000     4.023000000
H     4.562000000    -0.299000000     4.264000000
H     3.174000000     0.544000000     4.913000000
C     3.560000000     1.164000000     2.920000000
C     2.714000000     2.281000000     2.984000000
C     2.687000000     3.226000000     1.957000000
H     1.939000000     4.008000000     2.058000000
C     3.532000000     3.062000000     0.838000000
O     3.313000000     3.845000000    -0.262000000
C     2.584000000     3.200000000    -1.320000000
H     1.961000000     2.437000000    -0.830000000
C     1.420000000     4.140000000    -1.868000000
C     0.843000000     3.853000000    -3.114000000
H     1.247000000     3.077000000    -3.759000000
C     0.815000000     5.066000000    -1.021000000
H     1.222000000     5.366000000    -0.059000000
C    -0.387000000     5.707000000    -1.430000000
O    -1.074000000     6.536000000    -0.562000000
C    -0.943000000     5.442000000    -2.677000000
H    -1.772000000     6.061000000    -3.011000000
C    -0.291000000     4.503000000    -3.470000000
O    -0.975000000     4.218000000    -4.607000000
C    -0.443000000     3.541000000    -5.644000000
C    -0.877000000     2.207000000    -5.847000000
H    -1.630000000     1.756000000    -5.205000000
C     0.559000000     3.978000000    -6.459000000
H     1.001000000     4.954000000    -6.275000000
C     1.128000000     3.176000000    -7.458000000
H     1.917000000     3.562000000    -8.099000000
C     0.614000000     1.862000000    -7.651000000
H     1.017000000     1.195000000    -8.409000000
C    -0.442000000     1.420000000    -6.895000000
O    -0.873000000     0.098000000    -7.100000000
C    -0.907000000    -0.816000000    -6.068000000
C    -2.137000000    -1.397000000    -5.705000000
H    -3.058000000    -1.152000000    -6.229000000
C    -2.212000000    -2.334000000    -4.699000000
O    -3.423000000    -2.916000000    -4.269000000
C    -3.507000000    -4.125000000    -3.654000000
C    -4.196000000    -4.235000000    -2.483000000
H    -4.742000000    -3.489000000    -1.911000000
C    -2.889000000    -5.265000000    -4.197000000
H    -2.273000000    -5.049000000    -5.067000000
C    -2.959000000    -6.508000000    -3.565000000
H    -2.374000000    -7.307000000    -4.013000000
C    -3.593000000    -6.615000000    -2.324000000
H    -3.784000000    -7.571000000    -1.844000000
C    -4.230000000    -5.460000000    -1.790000000
O    -4.895000000    -5.513000000    -0.593000000
C    -4.320000000    -4.913000000     0.493000000
C    -5.130000000    -4.138000000     1.281000000
H    -6.210000000    -4.089000000     1.166000000
C    -4.594000000    -3.354000000     2.298000000
O    -5.434000000    -2.639000000     3.121000000
C    -4.986000000    -1.784000000     4.139000000
C    -4.856000000    -0.398000000     3.854000000
H    -4.914000000    -0.012000000     2.839000000
C    -4.578000000    -2.303000000     5.338000000
H    -4.673000000    -3.378000000     5.467000000
C    -4.134000000    -1.495000000     6.376000000
H    -3.663000000    -1.924000000     7.257000000
C    -4.019000000    -0.052000000     6.146000000
H    -3.456000000     0.542000000     6.862000000
C    -4.396000000     0.444000000     4.896000000
O    -4.263000000     1.783000000     4.624000000
C    -3.044000000     2.420000000     4.493000000
C    -3.019000000     3.848000000     4.395000000
H    -3.913000000     4.448000000     4.243000000
C    -1.770000000     4.486000000     4.159000000
O    -1.763000000     5.858000000     4.198000000
C    -1.114000000     6.549000000     3.184000000
C    -0.108000000     7.433000000     3.498000000
H     0.092000000     7.830000000     4.490000000
C     0.533000000     8.084000000     2.402000000
H     1.203000000     8.924000000     2.563000000
C     0.280000000     7.820000000     1.036000000
H     0.805000000     8.371000000     0.259000000
C    -0.650000000     6.784000000     0.758000000
C    -1.414000000     6.338000000     1.834000000
H    -2.204000000     5.636000000     1.581000000
C    -2.376000000    -0.693000000    -1.652000000
H    -3.063000000    -1.453000000    -2.016000000
C    -1.495000000    -1.073000000    -0.604000000
H    -1.489000000    -2.100000000    -0.246000000
C    -0.561000000    -0.150000000    -0.157000000
H     0.168000000    -0.397000000     0.589000000
C    -0.550000000     1.119000000    -0.684000000
H     0.184000000     1.829000000    -0.312000000
C    -1.479000000     1.466000000    -1.682000000
H    -1.544000000     2.502000000    -2.005000000
C    -2.423000000     0.608000000    -2.151000000
C    -3.449000000     1.076000000    -3.236000000
O    -3.576000000     2.267000000    -3.555000000
O    -4.252000000     0.299000000    -3.619000000
O    -3.985000000     3.369000000    -5.916000000
H    -4.820000000     3.725000000    -5.612000000
H    -3.610000000     2.947000000    -5.144000000
O    -2.664000000     5.981000000    -6.312000000
H    -2.469000000     5.056000000    -6.159000000
H    -2.057000000     6.243000000    -7.004000000
O    -8.609000000     1.352000000    -6.049000000
H    -8.648000000     0.404000000    -5.918000000
H    -8.019000000     1.664000000    -5.363000000
O    -5.172000000    -1.982000000    -7.396000000
H    -5.069000000    -1.172000000    -6.897000000
H    -6.077000000    -2.250000000    -7.232000000
O    -3.953000000     4.178000000    -1.847000000
H    -3.856000000     3.447000000    -2.458000000
H    -3.590000000     3.851000000    -1.024000000
O    -4.639000000     5.978000000    -3.735000000
H    -4.473000000     5.234000000    -3.156000000
H    -3.794000000     6.153000000    -4.148000000
O    -2.680000000    -0.742000000    -9.144000000
H    -2.442000000    -0.419000000    -8.275000000
H    -3.630000000    -0.850000000    -9.108000000
O    -7.609000000     4.473000000    -2.158000000
H    -6.905000000     3.863000000    -1.942000000
H    -7.902000000     4.204000000    -3.028000000
O    -4.692000000     0.651000000    -6.247000000
H    -4.631000000     1.604000000    -6.191000000
H    -4.482000000     0.345000000    -5.364000000
O    -6.695000000     0.695000000    -1.259000000
H    -6.038000000     1.021000000    -0.643000000
H    -6.964000000    -0.149000000    -0.898000000
O    -3.071000000     3.497000000    -8.555000000
H    -3.862000000     3.693000000    -9.058000000
H    -3.383000000     3.368000000    -7.659000000
O    -6.238000000     4.761000000    -5.548000000
H    -5.825000000     4.895000000    -4.695000000
H    -7.176000000     4.748000000    -5.361000000
O    -9.742000000     0.265000000    -3.077000000
H   -10.486000000     0.807000000    -2.813000000
H    -8.978000000     0.719000000    -2.720000000
O    -3.443000000     3.111000000     0.541000000
H    -4.259000000     2.679000000     0.795000000
H    -2.760000000     2.475000000     0.753000000
O    -5.804000000     1.685000000     1.037000000
H    -6.296000000     1.287000000     1.755000000
H    -6.341000000     2.429000000     0.761000000
O    -6.543000000     3.115000000    -7.816000000
H    -6.444000000     2.309000000    -7.310000000
H    -6.313000000     3.813000000    -7.203000000
O    -6.132000000    -1.790000000    -3.942000000
H    -5.741000000    -0.974000000    -3.631000000
H    -5.429000000    -2.224000000    -4.425000000
O    -8.561000000    -1.326000000    -5.067000000
H    -7.740000000    -1.445000000    -4.588000000
H    -9.225000000    -1.234000000    -4.384000000
O    -6.600000000     1.672000000    -3.888000000
H    -5.671000000     1.493000000    -4.036000000
H    -6.729000000     1.510000000    -2.954000000
