215
-1452.68822
C    -1.402000000    -3.541000000    -3.458000000
H    -1.226000000    -4.234000000    -2.639000000
C    -0.377000000    -2.617000000    -3.762000000
C    -0.615000000    -1.551000000    -4.641000000
H     0.232000000    -0.935000000    -4.932000000
C     0.932000000    -2.564000000    -2.857000000
O     1.290000000    -3.869000000    -2.419000000
H     0.628000000    -1.973000000    -1.980000000
O     2.078000000    -2.014000000    -3.569000000
C     2.846000000    -1.112000000    -2.923000000
C     2.806000000     0.223000000    -3.243000000
H     2.063000000     0.578000000    -3.954000000
C     3.626000000     1.131000000    -2.573000000
O     3.419000000     2.470000000    -2.802000000
C     4.594000000     0.733000000    -1.678000000
C     5.497000000     1.642000000    -0.826000000
H     6.372000000     1.054000000    -0.539000000
C     4.699000000     2.183000000     0.405000000
C     4.750000000     1.423000000     1.613000000
H     5.340000000     0.511000000     1.608000000
H     5.902000000     2.469000000    -1.412000000
C     4.743000000    -0.622000000    -1.472000000
H     5.415000000    -0.979000000    -0.695000000
C     3.862000000    -1.532000000    -1.990000000
C     3.970000000    -3.014000000    -1.690000000
H     4.933000000    -3.306000000    -1.266000000
H     3.873000000    -3.584000000    -2.616000000
C     2.953000000    -3.556000000    -0.707000000
C     3.312000000    -3.781000000     0.623000000
H     4.263000000    -3.350000000     0.924000000
C     1.711000000    -4.004000000    -1.141000000
C     0.763000000    -4.526000000    -0.221000000
H    -0.205000000    -4.778000000    -0.646000000
C     1.104000000    -4.642000000     1.121000000
O     0.099000000    -4.994000000     1.916000000
C    -0.651000000    -3.827000000     2.300000000
C    -2.173000000    -4.076000000     2.337000000
C    -2.973000000    -3.266000000     3.094000000
H    -2.587000000    -2.685000000     3.927000000
C    -2.790000000    -4.931000000     1.407000000
H    -2.204000000    -5.514000000     0.701000000
O    -0.246000000    -3.383000000     3.626000000
H    -0.493000000    -3.032000000     1.556000000
C     2.361000000    -4.336000000     1.514000000
C     2.620000000    -4.190000000     3.004000000
H     3.679000000    -4.316000000     3.238000000
H     2.114000000    -4.932000000     3.625000000
C     2.137000000    -2.759000000     3.433000000
C     3.090000000    -1.706000000     3.515000000
H     4.153000000    -1.878000000     3.367000000
C     0.781000000    -2.444000000     3.728000000
C     0.454000000    -1.171000000     4.010000000
H    -0.567000000    -0.941000000     4.303000000
C     1.370000000    -0.141000000     4.043000000
O     0.858000000     1.095000000     4.329000000
C     0.855000000     2.079000000     3.296000000
C    -0.477000000     2.774000000     3.251000000
C    -1.638000000     2.077000000     3.463000000
H    -1.627000000     0.996000000     3.571000000
C    -0.564000000     4.100000000     3.008000000
H     0.324000000     4.689000000     2.793000000
O     1.984000000     3.017000000     3.330000000
H     0.995000000     1.555000000     2.339000000
C     2.703000000    -0.356000000     3.696000000
C     3.775000000     0.753000000     3.798000000
H     4.758000000     0.294000000     3.923000000
H     3.591000000     1.320000000     4.713000000
C     3.809000000     1.667000000     2.617000000
C     2.957000000     2.774000000     2.475000000
C     2.952000000     3.503000000     1.315000000
H     2.353000000     4.408000000     1.255000000
C     3.748000000     3.140000000     0.255000000
O     3.455000000     3.791000000    -0.880000000
C     2.614000000     3.167000000    -1.801000000
H     1.964000000     2.416000000    -1.328000000
C     1.647000000     4.158000000    -2.381000000
C     1.059000000     3.855000000    -3.695000000
H     1.429000000     2.982000000    -4.225000000
C     1.079000000     5.217000000    -1.644000000
H     1.368000000     5.371000000    -0.608000000
C     0.167000000     6.046000000    -2.210000000
O    -0.268000000     7.181000000    -1.562000000
C    -0.433000000     5.700000000    -3.406000000
H    -1.280000000     6.263000000    -3.789000000
C    -0.080000000     4.560000000    -4.131000000
O    -0.736000000     4.194000000    -5.294000000
C    -0.562000000     2.981000000    -5.903000000
C    -1.373000000     1.870000000    -5.642000000
H    -2.243000000     1.871000000    -4.991000000
C     0.493000000     2.929000000    -6.679000000
H     1.132000000     3.804000000    -6.775000000
C     0.775000000     1.729000000    -7.345000000
H     1.710000000     1.726000000    -7.898000000
C    -0.067000000     0.604000000    -7.226000000
H     0.257000000    -0.334000000    -7.669000000
C    -1.134000000     0.657000000    -6.313000000
O    -2.109000000    -0.343000000    -6.142000000
C    -1.867000000    -1.416000000    -5.221000000
C    -2.847000000    -2.314000000    -4.937000000
H    -3.869000000    -2.095000000    -5.235000000
C    -2.615000000    -3.453000000    -4.147000000
O    -3.678000000    -4.302000000    -3.820000000
C    -3.561000000    -5.274000000    -2.882000000
C    -4.157000000    -5.149000000    -1.691000000
H    -4.740000000    -4.259000000    -1.467000000
C    -3.167000000    -6.513000000    -3.347000000
H    -2.913000000    -6.782000000    -4.369000000
C    -2.891000000    -7.532000000    -2.423000000
H    -2.397000000    -8.468000000    -2.675000000
C    -3.438000000    -7.362000000    -1.129000000
H    -3.377000000    -8.136000000    -0.368000000
C    -4.099000000    -6.184000000    -0.725000000
O    -4.725000000    -6.026000000     0.487000000
C    -4.187000000    -5.089000000     1.370000000
C    -5.028000000    -4.410000000     2.263000000
H    -6.101000000    -4.552000000     2.162000000
C    -4.352000000    -3.471000000     3.170000000
O    -5.170000000    -2.704000000     4.074000000
C    -4.783000000    -1.510000000     4.654000000
C    -4.564000000    -0.419000000     3.885000000
H    -4.889000000    -0.499000000     2.851000000
C    -4.505000000    -1.445000000     5.968000000
H    -4.705000000    -2.379000000     6.486000000
C    -4.007000000    -0.261000000     6.550000000
H    -3.717000000    -0.186000000     7.595000000
C    -3.836000000     0.847000000     5.720000000
H    -3.423000000     1.751000000     6.161000000
C    -4.145000000     0.807000000     4.367000000
O    -4.020000000     1.901000000     3.514000000
C    -2.873000000     2.624000000     3.351000000
C    -2.991000000     3.990000000     3.106000000
H    -3.933000000     4.502000000     2.928000000
C    -1.822000000     4.711000000     2.980000000
O    -1.973000000     6.075000000     2.679000000
C    -1.087000000     6.830000000     1.987000000
C    -0.519000000     7.994000000     2.457000000
H    -0.545000000     8.254000000     3.513000000
C     0.233000000     8.783000000     1.622000000
H     0.701000000     9.667000000     2.048000000
C     0.300000000     8.529000000     0.233000000
H     0.793000000     9.207000000    -0.458000000
C    -0.292000000     7.352000000    -0.245000000
C    -1.048000000     6.522000000     0.617000000
H    -1.665000000     5.735000000     0.192000000
C    -3.058000000    -1.203000000    -1.528000000
H    -3.787000000    -1.896000000    -1.940000000
C    -2.115000000    -1.537000000    -0.568000000
H    -2.007000000    -2.594000000    -0.340000000
C    -1.195000000    -0.607000000    -0.066000000
H    -0.280000000    -0.876000000     0.564000000
C    -1.252000000     0.684000000    -0.567000000
H    -0.565000000     1.429000000    -0.176000000
C    -2.178000000     0.999000000    -1.523000000
H    -2.241000000     2.033000000    -1.855000000
C    -3.094000000     0.069000000    -2.056000000
C    -4.189000000     0.572000000    -3.021000000
O    -4.294000000     1.816000000    -3.226000000
O    -4.982000000    -0.235000000    -3.518000000
O    -5.708000000     3.742000000    -4.655000000
H    -4.965000000     4.295000000    -4.897000000
H    -5.309000000     2.949000000    -4.297000000
O    -3.509000000     5.019000000    -5.651000000
H    -2.741000000     4.449000000    -5.686000000
H    -3.650000000     5.286000000    -6.559000000
O    -8.192000000     2.020000000    -5.285000000
H    -8.274000000     1.117000000    -4.979000000
H    -7.357000000     2.320000000    -4.926000000
O    -6.248000000     5.526000000     0.914000000
H    -6.684000000     5.814000000     0.112000000
H    -6.473000000     4.598000000     0.989000000
O    -5.738000000    -1.937000000    -8.161000000
H    -5.826000000    -1.268000000    -7.482000000
H    -6.597000000    -2.355000000    -8.199000000
O    -3.747000000     4.205000000    -2.102000000
H    -3.777000000     3.463000000    -2.706000000
H    -4.259000000     3.919000000    -1.346000000
O    -4.349000000     6.412000000    -3.364000000
H    -4.179000000     5.623000000    -2.850000000
H    -4.107000000     6.173000000    -4.259000000
O    -4.472000000     1.038000000    -7.754000000
H    -3.648000000     0.713000000    -7.392000000
H    -5.100000000     0.952000000    -7.037000000
O    -8.303000000     4.087000000    -2.736000000
H    -7.989000000     3.184000000    -2.693000000
H    -8.240000000     4.319000000    -3.662000000
O    -6.074000000    -0.538000000    -5.817000000
H    -6.884000000    -0.963000000    -5.536000000
H    -5.577000000    -0.411000000    -5.009000000
O    -8.527000000    -0.700000000    -4.494000000
H    -8.237000000    -1.413000000    -3.925000000
H    -9.483000000    -0.742000000    -4.461000000
O    -5.289000000     3.231000000    -9.233000000
H    -5.818000000     3.567000000    -8.510000000
H    -5.010000000     2.363000000    -8.943000000
O    -6.177000000    -4.037000000    -5.223000000
H    -5.521000000    -4.580000000    -4.785000000
H    -6.411000000    -3.374000000    -4.574000000
O    -6.806000000     2.927000000     0.324000000
H    -6.804000000     2.560000000    -0.560000000
H    -7.030000000     2.187000000     0.889000000
O    -7.884000000    -2.218000000    -0.618000000
H    -7.637000000    -1.846000000     0.229000000
H    -8.758000000    -1.865000000    -0.789000000
O   -10.722000000     3.240000000    -4.440000000
H    -9.977000000     2.639000000    -4.444000000
H   -10.343000000     4.093000000    -4.652000000
O    -6.800000000     4.173000000    -7.269000000
H    -6.364000000     3.877000000    -6.470000000
H    -7.024000000     5.087000000    -7.096000000
O    -6.652000000    -2.323000000    -3.177000000
H    -6.183000000    -1.498000000    -3.305000000
H    -6.484000000    -2.554000000    -2.264000000
O    -6.867000000     1.594000000    -2.344000000
H    -5.916000000     1.620000000    -2.442000000
H    -7.150000000     0.897000000    -2.937000000
