215
-1475.19429
C    -1.590000000    -3.631000000    -3.597000000
H    -1.382000000    -4.611000000    -3.175000000
C    -0.497000000    -2.703000000    -3.730000000
C    -0.793000000    -1.429000000    -4.255000000
H    -0.001000000    -0.684000000    -4.242000000
C     0.809000000    -2.968000000    -3.014000000
O     1.001000000    -4.295000000    -2.502000000
H     0.866000000    -2.308000000    -2.136000000
O     1.897000000    -2.417000000    -3.774000000
C     2.926000000    -1.695000000    -3.159000000
C     2.941000000    -0.319000000    -3.343000000
H     2.354000000     0.059000000    -4.176000000
C     3.790000000     0.482000000    -2.605000000
O     3.720000000     1.829000000    -2.916000000
C     4.581000000    -0.032000000    -1.565000000
C     5.499000000     0.887000000    -0.777000000
H     6.411000000     0.455000000    -0.358000000
C     4.718000000     1.501000000     0.361000000
C     4.779000000     0.871000000     1.653000000
H     5.492000000     0.067000000     1.817000000
H     5.819000000     1.700000000    -1.431000000
C     4.578000000    -1.457000000    -1.378000000
H     5.242000000    -1.988000000    -0.701000000
C     3.730000000    -2.259000000    -2.142000000
C     3.668000000    -3.761000000    -1.925000000
H     4.663000000    -4.101000000    -1.629000000
H     3.431000000    -4.221000000    -2.887000000
C     2.676000000    -4.118000000    -0.793000000
C     2.978000000    -3.992000000     0.611000000
H     3.990000000    -3.787000000     0.953000000
C     1.378000000    -4.479000000    -1.184000000
C     0.420000000    -4.781000000    -0.233000000
H    -0.622000000    -4.823000000    -0.540000000
C     0.732000000    -4.616000000     1.103000000
O    -0.317000000    -4.681000000     1.960000000
C    -0.937000000    -3.410000000     2.357000000
C    -2.457000000    -3.413000000     2.292000000
C    -3.200000000    -2.439000000     2.970000000
H    -2.612000000    -1.725000000     3.542000000
C    -3.092000000    -4.288000000     1.421000000
H    -2.551000000    -5.088000000     0.921000000
O    -0.423000000    -3.054000000     3.714000000
H    -0.641000000    -2.568000000     1.715000000
C     1.945000000    -4.160000000     1.540000000
C     2.215000000    -4.066000000     3.029000000
H     3.253000000    -4.395000000     3.113000000
H     1.569000000    -4.747000000     3.588000000
C     1.987000000    -2.693000000     3.626000000
C     3.077000000    -1.791000000     3.768000000
H     4.111000000    -2.101000000     3.639000000
C     0.686000000    -2.289000000     3.921000000
C     0.458000000    -0.971000000     4.309000000
H    -0.564000000    -0.666000000     4.521000000
C     1.485000000    -0.092000000     4.270000000
O     1.213000000     1.153000000     4.598000000
C     1.045000000     2.048000000     3.563000000
C    -0.147000000     2.963000000     3.767000000
C    -1.381000000     2.572000000     4.238000000
H    -1.456000000     1.557000000     4.620000000
C    -0.126000000     4.322000000     3.310000000
H     0.843000000     4.566000000     2.883000000
O     2.253000000     2.872000000     3.440000000
H     0.959000000     1.388000000     2.687000000
C     2.791000000    -0.470000000     4.100000000
C     3.957000000     0.604000000     4.064000000
H     4.884000000     0.035000000     4.167000000
H     3.890000000     1.224000000     4.960000000
C     4.009000000     1.402000000     2.744000000
C     3.137000000     2.443000000     2.472000000
C     3.209000000     3.152000000     1.305000000
H     2.608000000     4.022000000     1.053000000
C     3.902000000     2.675000000     0.218000000
O     3.729000000     3.239000000    -1.010000000
C     2.946000000     2.596000000    -2.034000000
H     2.359000000     1.833000000    -1.501000000
C     2.032000000     3.630000000    -2.693000000
C     1.517000000     3.419000000    -3.963000000
H     1.729000000     2.525000000    -4.543000000
C     1.586000000     4.738000000    -1.919000000
H     1.845000000     4.966000000    -0.888000000
C     0.671000000     5.586000000    -2.483000000
O     0.091000000     6.592000000    -1.779000000
C     0.203000000     5.412000000    -3.787000000
H    -0.468000000     6.150000000    -4.219000000
C     0.648000000     4.325000000    -4.534000000
O     0.280000000     4.121000000    -5.821000000
C    -0.026000000     2.849000000    -6.304000000
C    -0.907000000     2.049000000    -5.605000000
H    -1.361000000     2.414000000    -4.687000000
C     0.597000000     2.304000000    -7.462000000
H     1.514000000     2.728000000    -7.862000000
C     0.120000000     1.155000000    -8.029000000
H     0.614000000     0.731000000    -8.900000000
C    -0.896000000     0.479000000    -7.431000000
H    -1.228000000    -0.390000000    -7.994000000
C    -1.280000000     0.833000000    -6.172000000
O    -2.266000000     0.132000000    -5.451000000
C    -2.025000000    -1.088000000    -4.834000000
C    -3.029000000    -2.059000000    -4.730000000
H    -4.023000000    -1.768000000    -5.060000000
C    -2.839000000    -3.267000000    -4.041000000
O    -3.811000000    -4.140000000    -4.059000000
C    -4.217000000    -4.968000000    -3.067000000
C    -4.298000000    -4.490000000    -1.721000000
H    -3.949000000    -3.482000000    -1.512000000
C    -4.426000000    -6.248000000    -3.338000000
H    -4.222000000    -6.487000000    -4.378000000
C    -4.852000000    -7.174000000    -2.410000000
H    -5.105000000    -8.188000000    -2.710000000
C    -5.101000000    -6.705000000    -1.118000000
H    -5.457000000    -7.359000000    -0.326000000
C    -4.801000000    -5.401000000    -0.805000000
O    -5.138000000    -5.101000000     0.513000000
C    -4.454000000    -4.140000000     1.214000000
C    -5.182000000    -3.153000000     1.834000000
H    -6.265000000    -3.225000000     1.770000000
C    -4.546000000    -2.249000000     2.705000000
O    -5.265000000    -1.237000000     3.254000000
C    -4.808000000    -0.481000000     4.360000000
C    -4.426000000     0.846000000     4.185000000
H    -4.475000000     1.231000000     3.170000000
C    -4.817000000    -0.924000000     5.691000000
H    -5.093000000    -1.953000000     5.909000000
C    -4.298000000    -0.084000000     6.724000000
H    -4.259000000    -0.528000000     7.716000000
C    -3.801000000     1.168000000     6.438000000
H    -3.424000000     1.684000000     7.317000000
C    -3.898000000     1.658000000     5.142000000
O    -3.626000000     2.967000000     4.942000000
C    -2.460000000     3.425000000     4.369000000
C    -2.404000000     4.691000000     3.863000000
H    -3.268000000     5.351000000     3.846000000
C    -1.183000000     5.171000000     3.385000000
O    -1.151000000     6.385000000     2.870000000
C    -0.285000000     6.768000000     1.849000000
C     0.609000000     7.752000000     2.182000000
H     0.714000000     8.035000000     3.226000000
C     1.481000000     8.236000000     1.171000000
H     2.279000000     8.918000000     1.454000000
C     1.284000000     7.830000000    -0.112000000
H     1.916000000     8.243000000    -0.894000000
C     0.308000000     6.875000000    -0.442000000
C    -0.493000000     6.347000000     0.575000000
H    -1.259000000     5.631000000     0.288000000
C    -2.307000000    -0.597000000    -1.400000000
H    -3.226000000    -1.090000000    -1.705000000
C    -1.325000000    -1.204000000    -0.676000000
H    -1.352000000    -2.284000000    -0.549000000
C    -0.295000000    -0.390000000    -0.105000000
H     0.429000000    -0.879000000     0.550000000
C    -0.236000000     1.023000000    -0.232000000
H     0.563000000     1.546000000     0.285000000
C    -1.200000000     1.591000000    -1.110000000
H    -1.140000000     2.675000000    -1.170000000
C    -2.273000000     0.800000000    -1.610000000
C    -3.371000000     1.467000000    -2.398000000
O    -3.293000000     2.630000000    -2.655000000
O    -4.335000000     0.754000000    -2.765000000
O    -6.581000000     6.093000000    -3.323000000
H    -6.167000000     6.770000000    -2.788000000
H    -7.509000000     6.328000000    -3.331000000
O    -6.121000000     3.312000000    -2.538000000
H    -5.773000000     4.120000000    -2.916000000
H    -5.378000000     2.708000000    -2.539000000
O    -7.535000000     1.105000000    -3.198000000
H    -6.759000000     0.990000000    -3.746000000
H    -7.492000000     2.017000000    -2.910000000
O    -3.288000000     4.872000000    -1.238000000
H    -3.034000000     4.065000000    -1.684000000
H    -3.736000000     4.577000000    -0.445000000
O    -8.364000000    -0.657000000    -1.301000000
H    -8.089000000    -0.118000000    -2.043000000
H    -7.546000000    -0.954000000    -0.904000000
O    -9.099000000     3.969000000    -2.907000000
H    -9.131000000     3.527000000    -3.756000000
H    -8.319000000     3.613000000    -2.481000000
O    -5.568000000     0.562000000    -4.823000000
H    -4.954000000     0.649000000    -4.093000000
H    -5.488000000     1.387000000    -5.302000000
O    -3.705000000     7.810000000     0.231000000
H    -3.674000000     7.871000000    -0.724000000
H    -3.961000000     6.905000000     0.405000000
O    -6.283000000     0.018000000    -7.963000000
H    -6.227000000     0.208000000    -7.026000000
H    -6.686000000    -0.848000000    -8.008000000
O    -3.758000000     4.385000000    -4.988000000
H    -4.384000000     3.822000000    -5.443000000
H    -3.475000000     3.868000000    -4.233000000
O    -5.779000000    -0.352000000    -0.780000000
H    -5.903000000     0.398000000    -0.197000000
H    -5.209000000    -0.023000000    -1.475000000
O    -4.640000000     4.246000000     1.451000000
H    -5.071000000     3.398000000     1.339000000
H    -3.961000000     4.085000000     2.106000000
O    -3.680000000     7.218000000    -2.601000000
H    -3.225000000     7.263000000    -3.441000000
H    -3.508000000     6.332000000    -2.282000000
O    -9.051000000    -2.390000000    -4.618000000
H    -8.484000000    -1.810000000    -4.110000000
H    -8.789000000    -3.272000000    -4.354000000
O    -5.817000000    -2.011000000    -3.268000000
H    -5.988000000    -1.572000000    -2.435000000
H    -5.574000000    -1.303000000    -3.865000000
O    -7.234000000    -4.473000000    -3.716000000
H    -7.507000000    -4.597000000    -2.807000000
H    -6.639000000    -3.723000000    -3.687000000
O    -5.567000000     2.769000000    -6.455000000
H    -5.128000000     2.564000000    -7.280000000
H    -6.302000000     3.329000000    -6.706000000
O    -2.516000000     6.628000000    -5.766000000
H    -1.640000000     6.461000000    -6.115000000
H    -2.820000000     5.772000000    -5.464000000
O    -5.994000000     2.036000000     0.627000000
H    -6.552000000     1.879000000     1.388000000
H    -6.496000000     2.644000000     0.083000000
