215
-1450.88259
C    -1.698000000    -3.557000000    -3.690000000
H    -1.484000000    -4.479000000    -3.156000000
C    -0.766000000    -2.557000000    -3.882000000
C    -1.226000000    -1.349000000    -4.410000000
H    -0.465000000    -0.583000000    -4.535000000
C     0.640000000    -2.575000000    -3.309000000
O     1.084000000    -3.963000000    -3.100000000
H     0.528000000    -1.952000000    -2.409000000
O     1.588000000    -1.969000000    -4.217000000
C     2.580000000    -1.080000000    -3.740000000
C     2.347000000     0.315000000    -3.840000000
H     1.534000000     0.548000000    -4.522000000
C     3.170000000     1.316000000    -3.255000000
O     2.852000000     2.700000000    -3.412000000
C     4.208000000     0.903000000    -2.449000000
C     5.020000000     1.858000000    -1.563000000
H     6.026000000     1.503000000    -1.329000000
C     4.390000000     2.154000000    -0.236000000
C     4.679000000     1.405000000     0.927000000
H     5.410000000     0.602000000     0.866000000
H     5.260000000     2.797000000    -2.065000000
C     4.477000000    -0.470000000    -2.363000000
H     5.390000000    -0.709000000    -1.824000000
C     3.677000000    -1.485000000    -2.915000000
C     4.013000000    -2.926000000    -2.680000000
H     5.053000000    -3.162000000    -2.447000000
H     3.854000000    -3.537000000    -3.572000000
C     3.060000000    -3.455000000    -1.608000000
C     3.478000000    -3.320000000    -0.250000000
H     4.440000000    -2.846000000    -0.072000000
C     1.769000000    -4.026000000    -1.865000000
C     0.982000000    -4.410000000    -0.802000000
H     0.015000000    -4.859000000    -1.016000000
C     1.455000000    -4.418000000     0.521000000
O     0.488000000    -4.698000000     1.511000000
C     0.054000000    -3.645000000     2.356000000
C    -1.419000000    -3.899000000     2.683000000
C    -1.919000000    -3.522000000     3.925000000
H    -1.318000000    -3.095000000     4.724000000
C    -2.307000000    -4.446000000     1.730000000
H    -1.920000000    -4.684000000     0.743000000
O     0.910000000    -3.642000000     3.537000000
H     0.110000000    -2.743000000     1.728000000
C     2.711000000    -3.897000000     0.795000000
C     3.285000000    -3.970000000     2.202000000
H     4.375000000    -3.949000000     2.127000000
H     2.953000000    -4.873000000     2.718000000
C     2.884000000    -2.673000000     2.944000000
C     3.709000000    -1.558000000     2.873000000
H     4.636000000    -1.608000000     2.308000000
C     1.764000000    -2.618000000     3.741000000
C     1.234000000    -1.375000000     4.165000000
H     0.211000000    -1.379000000     4.534000000
C     2.084000000    -0.246000000     4.037000000
O     1.678000000     1.003000000     4.388000000
C     1.146000000     1.741000000     3.331000000
C    -0.252000000     2.369000000     3.635000000
C    -1.302000000     1.594000000     4.195000000
H    -1.183000000     0.526000000     4.363000000
C    -0.514000000     3.695000000     3.268000000
H     0.293000000     4.350000000     2.951000000
O     2.122000000     2.761000000     3.077000000
H     1.010000000     1.058000000     2.479000000
C     3.336000000    -0.334000000     3.438000000
C     4.254000000     0.900000000     3.351000000
H     5.317000000     0.652000000     3.345000000
H     4.037000000     1.461000000     4.263000000
C     3.929000000     1.635000000     2.095000000
C     2.908000000     2.589000000     2.048000000
C     2.719000000     3.457000000     0.951000000
H     2.031000000     4.295000000     1.021000000
C     3.326000000     3.124000000    -0.226000000
O     3.117000000     3.981000000    -1.330000000
C     2.154000000     3.414000000    -2.315000000
H     1.477000000     2.679000000    -1.854000000
C     1.167000000     4.405000000    -2.836000000
C     0.467000000     4.139000000    -4.027000000
H     0.921000000     3.397000000    -4.678000000
C     0.597000000     5.271000000    -1.882000000
H     0.991000000     5.330000000    -0.871000000
C    -0.534000000     6.008000000    -2.254000000
O    -1.023000000     7.021000000    -1.462000000
C    -1.206000000     5.769000000    -3.495000000
H    -2.132000000     6.224000000    -3.837000000
C    -0.741000000     4.781000000    -4.331000000
O    -1.485000000     4.510000000    -5.511000000
C    -1.607000000     3.275000000    -6.057000000
C    -2.331000000     2.291000000    -5.474000000
H    -2.861000000     2.581000000    -4.571000000
C    -0.790000000     3.073000000    -7.126000000
H    -0.240000000     3.904000000    -7.559000000
C    -0.807000000     1.798000000    -7.758000000
H    -0.242000000     1.509000000    -8.640000000
C    -1.625000000     0.771000000    -7.271000000
H    -1.679000000    -0.158000000    -7.833000000
C    -2.343000000     0.968000000    -6.072000000
O    -3.062000000    -0.044000000    -5.487000000
C    -2.502000000    -1.132000000    -4.922000000
C    -3.465000000    -2.187000000    -4.756000000
H    -4.520000000    -2.005000000    -4.947000000
C    -2.987000000    -3.377000000    -4.184000000
O    -3.997000000    -4.273000000    -3.790000000
C    -3.869000000    -5.081000000    -2.588000000
C    -4.329000000    -4.588000000    -1.340000000
H    -4.770000000    -3.595000000    -1.323000000
C    -3.331000000    -6.324000000    -2.624000000
H    -2.997000000    -6.744000000    -3.569000000
C    -3.128000000    -7.109000000    -1.500000000
H    -2.575000000    -8.043000000    -1.540000000
C    -3.558000000    -6.633000000    -0.259000000
H    -3.343000000    -7.189000000     0.650000000
C    -4.206000000    -5.420000000    -0.172000000
O    -4.627000000    -4.965000000     1.093000000
C    -3.673000000    -4.570000000     2.007000000
C    -4.121000000    -4.277000000     3.329000000
H    -5.126000000    -4.524000000     3.662000000
C    -3.274000000    -3.677000000     4.239000000
O    -3.829000000    -3.293000000     5.387000000
C    -3.649000000    -2.037000000     5.861000000
C    -3.735000000    -0.869000000     5.046000000
H    -4.145000000    -0.979000000     4.045000000
C    -3.336000000    -1.863000000     7.211000000
H    -3.202000000    -2.746000000     7.832000000
C    -3.101000000    -0.623000000     7.766000000
H    -2.794000000    -0.579000000     8.808000000
C    -3.172000000     0.540000000     6.971000000
H    -2.891000000     1.503000000     7.389000000
C    -3.541000000     0.377000000     5.617000000
O    -3.619000000     1.531000000     4.842000000
C    -2.529000000     2.186000000     4.296000000
C    -2.791000000     3.490000000     3.911000000
H    -3.776000000     3.935000000     4.029000000
C    -1.774000000     4.269000000     3.433000000
O    -2.054000000     5.571000000     2.967000000
C    -1.211000000     6.275000000     2.098000000
C    -0.109000000     6.997000000     2.555000000
H     0.138000000     6.946000000     3.612000000
C     0.663000000     7.700000000     1.601000000
H     1.517000000     8.286000000     1.933000000
C     0.333000000     7.776000000     0.267000000
H     0.864000000     8.410000000    -0.439000000
C    -0.824000000     7.136000000    -0.149000000
C    -1.554000000     6.330000000     0.731000000
H    -2.400000000     5.773000000     0.335000000
C    -2.641000000    -0.599000000    -1.084000000
H    -3.487000000    -1.203000000    -1.402000000
C    -1.418000000    -1.206000000    -0.806000000
H    -1.287000000    -2.284000000    -0.779000000
C    -0.299000000    -0.456000000    -0.457000000
H     0.674000000    -0.899000000    -0.151000000
C    -0.448000000     0.915000000    -0.413000000
H     0.358000000     1.547000000    -0.047000000
C    -1.699000000     1.490000000    -0.640000000
H    -1.724000000     2.575000000    -0.577000000
C    -2.818000000     0.735000000    -0.981000000
C    -4.069000000     1.457000000    -1.492000000
O    -3.962000000     2.657000000    -1.687000000
O    -5.118000000     0.905000000    -1.710000000
O    -8.277000000     5.981000000    -1.548000000
H    -7.352000000     5.854000000    -1.335000000
H    -8.742000000     5.744000000    -0.745000000
O    -5.352000000     4.994000000    -1.288000000
H    -5.035000000     4.765000000    -0.414000000
H    -4.830000000     4.455000000    -1.881000000
O    -7.505000000     2.323000000    -1.783000000
H    -6.590000000     2.047000000    -1.836000000
H    -7.680000000     2.739000000    -2.627000000
O    -3.964000000     3.679000000     0.722000000
H    -3.839000000     2.923000000     1.295000000
H    -4.129000000     3.301000000    -0.141000000
O    -8.968000000     0.100000000    -3.122000000
H    -9.261000000     0.819000000    -3.681000000
H    -8.221000000     0.458000000    -2.642000000
O    -6.182000000    -0.058000000    -4.313000000
H    -6.559000000     0.771000000    -4.607000000
H    -5.929000000     0.102000000    -3.404000000
O    -4.857000000     6.687000000     1.324000000
H    -4.082000000     6.129000000     1.257000000
H    -5.357000000     6.315000000     2.051000000
O    -5.289000000     3.837000000    -3.854000000
H    -5.835000000     3.167000000    -4.264000000
H    -4.656000000     3.345000000    -3.332000000
O    -6.605000000    -1.137000000    -0.651000000
H    -5.994000000    -0.565000000    -1.114000000
H    -6.930000000    -0.604000000     0.074000000
O    -6.831000000    -3.482000000     1.562000000
H    -6.510000000    -2.867000000     0.903000000
H    -6.058000000    -3.987000000     1.815000000
O    -7.174000000     5.895000000    -4.379000000
H    -7.763000000     5.881000000    -3.624000000
H    -6.678000000     5.079000000    -4.310000000
O    -6.753000000     3.453000000     2.384000000
H    -6.501000000     4.331000000     2.669000000
H    -6.033000000     3.167000000     1.822000000
O    -4.501000000     7.005000000    -3.315000000
H    -4.697000000     6.256000000    -3.879000000
H    -4.545000000     6.654000000    -2.426000000
O    -7.624000000    -3.353000000    -1.651000000
H    -7.104000000    -2.650000000    -1.260000000
H    -7.160000000    -3.572000000    -2.459000000
O    -7.517000000     2.503000000    -4.876000000
H    -7.140000000     2.554000000    -5.755000000
H    -8.430000000     2.764000000    -4.991000000
O    -4.569000000     4.597000000    -6.526000000
H    -4.634000000     3.892000000    -7.170000000
H    -4.839000000     4.194000000    -5.701000000
O    -4.557000000     1.373000000     2.110000000
H    -4.685000000     0.538000000     1.660000000
H    -4.950000000     1.243000000     2.973000000
O    -9.790000000     3.276000000    -0.363000000
H    -9.494000000     3.861000000     0.334000000
H    -8.994000000     3.060000000    -0.849000000
O    -7.230000000    -0.229000000     1.866000000
H    -7.384000000     0.404000000     2.567000000
H    -7.838000000    -0.944000000     2.051000000
