215
-1478.47599
C    -1.648000000    -3.684000000    -3.811000000
H    -1.316000000    -4.498000000    -3.172000000
C    -0.693000000    -2.655000000    -4.174000000
C    -1.127000000    -1.537000000    -4.999000000
H    -0.466000000    -0.759000000    -5.372000000
C     0.652000000    -2.582000000    -3.553000000
O     1.069000000    -3.866000000    -2.930000000
H     0.516000000    -1.938000000    -2.672000000
O     1.675000000    -2.120000000    -4.366000000
C     2.538000000    -1.192000000    -3.781000000
C     2.235000000     0.147000000    -3.953000000
H     1.310000000     0.372000000    -4.478000000
C     3.026000000     1.072000000    -3.271000000
O     2.606000000     2.332000000    -3.432000000
C     4.149000000     0.729000000    -2.564000000
C     5.031000000     1.764000000    -1.906000000
H     6.023000000     1.310000000    -1.857000000
C     4.386000000     2.053000000    -0.526000000
C     4.812000000     1.408000000     0.613000000
H     5.713000000     0.800000000     0.585000000
H     5.223000000     2.718000000    -2.401000000
C     4.451000000    -0.633000000    -2.473000000
H     5.335000000    -0.975000000    -1.941000000
C     3.594000000    -1.589000000    -2.996000000
C     3.853000000    -3.018000000    -2.707000000
H     4.940000000    -3.085000000    -2.626000000
H     3.587000000    -3.680000000    -3.533000000
C     3.039000000    -3.435000000    -1.547000000
C     3.477000000    -3.438000000    -0.265000000
H     4.493000000    -3.071000000    -0.140000000
C     1.706000000    -3.935000000    -1.723000000
C     0.938000000    -4.452000000    -0.698000000
H    -0.062000000    -4.826000000    -0.900000000
C     1.460000000    -4.392000000     0.635000000
O     0.561000000    -4.537000000     1.660000000
C     0.163000000    -3.357000000     2.450000000
C    -1.367000000    -3.382000000     2.736000000
C    -1.903000000    -2.871000000     3.917000000
H    -1.163000000    -2.793000000     4.709000000
C    -2.162000000    -3.647000000     1.667000000
H    -1.733000000    -4.143000000     0.800000000
O     0.942000000    -3.356000000     3.687000000
H     0.533000000    -2.458000000     1.935000000
C     2.730000000    -3.880000000     0.853000000
C     3.379000000    -3.906000000     2.225000000
H     4.462000000    -4.014000000     2.135000000
H     3.084000000    -4.725000000     2.885000000
C     3.141000000    -2.656000000     2.974000000
C     3.978000000    -1.528000000     2.869000000
H     4.839000000    -1.505000000     2.205000000
C     1.966000000    -2.485000000     3.791000000
C     1.692000000    -1.286000000     4.465000000
H     0.721000000    -1.088000000     4.912000000
C     2.567000000    -0.224000000     4.247000000
O     2.001000000     1.028000000     4.574000000
C     1.361000000     1.779000000     3.514000000
C     0.017000000     2.444000000     3.936000000
C    -0.605000000     2.023000000     5.111000000
H    -0.135000000     1.341000000     5.816000000
C    -0.573000000     3.497000000     3.225000000
H    -0.062000000     3.921000000     2.365000000
O     2.260000000     2.744000000     3.041000000
H     1.236000000     1.113000000     2.647000000
C     3.743000000    -0.298000000     3.519000000
C     4.637000000     0.908000000     3.175000000
H     5.704000000     0.699000000     3.071000000
H     4.438000000     1.684000000     3.917000000
C     4.161000000     1.613000000     1.866000000
C     3.082000000     2.503000000     1.922000000
C     2.672000000     3.142000000     0.762000000
H     1.942000000     3.945000000     0.707000000
C     3.304000000     2.895000000    -0.430000000
O     2.751000000     3.575000000    -1.501000000
C     1.831000000     2.892000000    -2.345000000
H     1.239000000     2.136000000    -1.808000000
C     0.694000000     3.718000000    -2.855000000
C    -0.063000000     3.455000000    -4.036000000
H     0.215000000     2.604000000    -4.652000000
C     0.180000000     4.695000000    -1.978000000
H     0.573000000     4.844000000    -0.976000000
C    -0.921000000     5.454000000    -2.335000000
O    -1.401000000     6.462000000    -1.504000000
C    -1.534000000     5.330000000    -3.567000000
H    -2.326000000     6.019000000    -3.851000000
C    -1.129000000     4.286000000    -4.460000000
O    -1.837000000     3.926000000    -5.617000000
C    -1.634000000     2.720000000    -6.337000000
C    -2.275000000     1.502000000    -6.010000000
H    -2.868000000     1.397000000    -5.105000000
C    -0.806000000     2.765000000    -7.449000000
H    -0.227000000     3.675000000    -7.586000000
C    -0.679000000     1.714000000    -8.328000000
H    -0.064000000     1.778000000    -9.222000000
C    -1.332000000     0.503000000    -8.008000000
H    -1.205000000    -0.407000000    -8.590000000
C    -2.100000000     0.446000000    -6.860000000
O    -2.779000000    -0.697000000    -6.506000000
C    -2.405000000    -1.534000000    -5.438000000
C    -3.262000000    -2.584000000    -5.177000000
H    -4.261000000    -2.514000000    -5.599000000
C    -2.894000000    -3.632000000    -4.356000000
O    -3.842000000    -4.533000000    -4.057000000
C    -4.041000000    -4.852000000    -2.724000000
C    -4.303000000    -3.760000000    -1.812000000
H    -4.291000000    -2.745000000    -2.201000000
C    -4.133000000    -6.166000000    -2.381000000
H    -3.864000000    -6.901000000    -3.135000000
C    -4.319000000    -6.522000000    -1.085000000
H    -4.283000000    -7.546000000    -0.722000000
C    -4.479000000    -5.519000000    -0.108000000
H    -4.471000000    -5.857000000     0.925000000
C    -4.307000000    -4.145000000    -0.437000000
O    -4.320000000    -3.189000000     0.567000000
C    -3.517000000    -3.252000000     1.671000000
C    -4.059000000    -2.715000000     2.846000000
H    -5.129000000    -2.535000000     2.897000000
C    -3.308000000    -2.595000000     4.022000000
O    -3.940000000    -2.290000000     5.183000000
C    -3.374000000    -1.466000000     6.142000000
C    -2.995000000    -0.172000000     5.817000000
H    -3.187000000     0.240000000     4.830000000
C    -3.332000000    -1.953000000     7.419000000
H    -3.594000000    -2.977000000     7.670000000
C    -2.923000000    -1.130000000     8.441000000
H    -3.009000000    -1.486000000     9.464000000
C    -2.659000000     0.205000000     8.116000000
H    -2.361000000     0.832000000     8.953000000
C    -2.649000000     0.695000000     6.823000000
O    -2.491000000     2.030000000     6.597000000
C    -1.811000000     2.491000000     5.504000000
C    -2.396000000     3.551000000     4.802000000
H    -3.281000000     4.073000000     5.154000000
C    -1.724000000     4.136000000     3.724000000
O    -2.327000000     5.063000000     2.947000000
C    -1.523000000     5.794000000     2.105000000
C    -0.601000000     6.711000000     2.614000000
H    -0.362000000     6.764000000     3.673000000
C     0.116000000     7.525000000     1.748000000
H     0.867000000     8.230000000     2.095000000
C    -0.157000000     7.430000000     0.352000000
H     0.371000000     8.095000000    -0.326000000
C    -1.104000000     6.519000000    -0.155000000
C    -1.793000000     5.715000000     0.776000000
H    -2.644000000     5.142000000     0.416000000
C    -1.954000000    -0.565000000    -1.114000000
H    -2.636000000    -1.342000000    -1.450000000
C    -0.610000000    -0.821000000    -0.796000000
H    -0.173000000    -1.815000000    -0.837000000
C     0.202000000     0.174000000    -0.225000000
H     1.158000000    -0.097000000     0.098000000
C    -0.414000000     1.407000000     0.038000000
H     0.072000000     2.148000000     0.668000000
C    -1.653000000     1.707000000    -0.482000000
H    -1.962000000     2.737000000    -0.326000000
C    -2.459000000     0.723000000    -1.003000000
C    -3.894000000     1.032000000    -1.351000000
O    -4.332000000     2.194000000    -1.280000000
O    -4.678000000     0.126000000    -1.606000000
O    -7.665000000     4.486000000    -1.035000000
H    -8.524000000     4.601000000    -0.629000000
H    -7.577000000     3.539000000    -1.144000000
O    -7.072000000     1.755000000    -1.506000000
H    -6.131000000     1.882000000    -1.387000000
H    -7.140000000     1.014000000    -2.107000000
O    -5.024000000     2.531000000     1.293000000
H    -4.511000000     1.899000000     1.795000000
H    -4.725000000     2.420000000     0.390000000
O    -5.815000000    -0.771000000    -3.956000000
H    -5.438000000    -0.501000000    -3.119000000
H    -6.183000000     0.033000000    -4.323000000
O    -5.230000000     4.916000000     2.709000000
H    -5.112000000     4.155000000     2.140000000
H    -4.369000000     5.334000000     2.730000000
O    -7.286000000    -1.904000000    -6.057000000
H    -6.788000000    -1.785000000    -5.248000000
H    -7.277000000    -2.850000000    -6.206000000
O    -4.453000000     3.196000000    -3.626000000
H    -4.988000000     2.469000000    -3.942000000
H    -4.439000000     3.088000000    -2.675000000
O    -6.496000000    -1.241000000    -0.276000000
H    -5.844000000    -0.633000000    -0.626000000
H    -6.499000000    -1.072000000     0.666000000
O    -7.833000000     5.454000000    -4.454000000
H    -7.736000000     5.357000000    -3.507000000
H    -7.757000000     6.396000000    -4.607000000
O    -9.539000000    -2.457000000    -0.594000000
H   -10.157000000    -1.897000000    -1.063000000
H    -8.717000000    -1.967000000    -0.604000000
O    -7.670000000     3.109000000     1.881000000
H    -7.148000000     3.359000000     2.644000000
H    -7.075000000     3.214000000     1.139000000
O    -5.036000000     5.492000000    -1.167000000
H    -4.745000000     4.583000000    -1.093000000
H    -5.986000000     5.449000000    -1.059000000
O    -7.267000000    -2.628000000    -2.591000000
H    -6.961000000    -2.353000000    -1.727000000
H    -6.863000000    -2.008000000    -3.198000000
O    -6.408000000     1.919000000    -4.738000000
H    -6.310000000     2.296000000    -5.613000000
H    -7.272000000     2.212000000    -4.447000000
O    -5.098000000     5.358000000    -5.452000000
H    -4.406000000     4.886000000    -4.989000000
H    -5.817000000     5.408000000    -4.823000000
O    -3.202000000     0.294000000     1.971000000
H    -2.525000000     0.513000000     1.332000000
H    -3.736000000    -0.371000000     1.537000000
O    -6.446000000     2.477000000     4.252000000
H    -5.918000000     3.261000000     4.405000000
H    -6.299000000     1.935000000     5.027000000
O    -8.729000000     0.531000000     0.276000000
H    -8.312000000     0.345000000     1.117000000
H    -8.081000000     1.047000000    -0.203000000
O    -6.363000000     0.002000000     2.320000000
H    -6.298000000     0.923000000     2.573000000
H    -6.853000000    -0.409000000     3.033000000
