215
-1436.65250
C    -1.755000000    -3.408000000    -3.860000000
H    -1.524000000    -4.151000000    -3.101000000
C    -0.841000000    -2.418000000    -4.255000000
C    -1.158000000    -1.437000000    -5.161000000
H    -0.391000000    -0.686000000    -5.336000000
C     0.572000000    -2.381000000    -3.621000000
O     1.143000000    -3.720000000    -3.225000000
H     0.450000000    -1.684000000    -2.779000000
O     1.546000000    -1.779000000    -4.504000000
C     2.516000000    -0.974000000    -3.812000000
C     2.269000000     0.451000000    -3.835000000
H     1.399000000     0.855000000    -4.346000000
C     3.015000000     1.288000000    -3.069000000
O     2.648000000     2.642000000    -3.121000000
C     4.082000000     0.828000000    -2.275000000
C     4.941000000     1.843000000    -1.512000000
H     5.894000000     1.313000000    -1.459000000
C     4.387000000     2.138000000    -0.175000000
C     4.563000000     1.240000000     0.844000000
H     5.242000000     0.394000000     0.773000000
H     5.059000000     2.694000000    -2.186000000
C     4.291000000    -0.507000000    -2.152000000
H     5.111000000    -0.833000000    -1.517000000
C     3.606000000    -1.421000000    -3.033000000
C     3.966000000    -2.912000000    -2.893000000
H     5.033000000    -2.993000000    -2.676000000
H     3.723000000    -3.516000000    -3.770000000
C     3.092000000    -3.447000000    -1.771000000
C     3.643000000    -3.582000000    -0.476000000
H     4.700000000    -3.377000000    -0.324000000
C     1.772000000    -3.876000000    -2.047000000
C     0.970000000    -4.421000000    -1.016000000
H     0.018000000    -4.914000000    -1.196000000
C     1.436000000    -4.282000000     0.239000000
O     0.597000000    -4.665000000     1.207000000
C    -0.003000000    -3.571000000     1.986000000
C    -1.477000000    -3.721000000     2.050000000
C    -2.131000000    -2.938000000     3.009000000
H    -1.535000000    -2.251000000     3.605000000
C    -2.187000000    -4.601000000     1.194000000
H    -1.618000000    -5.110000000     0.419000000
O     0.594000000    -3.521000000     3.304000000
H     0.087000000    -2.620000000     1.441000000
C     2.731000000    -3.921000000     0.530000000
C     3.262000000    -3.991000000     1.978000000
H     4.327000000    -4.234000000     1.978000000
H     2.758000000    -4.850000000     2.427000000
C     2.929000000    -2.772000000     2.767000000
C     3.843000000    -1.667000000     2.773000000
H     4.758000000    -1.849000000     2.216000000
C     1.642000000    -2.591000000     3.418000000
C     1.253000000    -1.441000000     4.071000000
H     0.284000000    -1.242000000     4.520000000
C     2.138000000    -0.389000000     3.989000000
O     1.667000000     0.849000000     4.489000000
C     1.395000000     1.903000000     3.646000000
C     0.153000000     2.669000000     4.161000000
C    -0.886000000     1.974000000     4.695000000
H    -0.766000000     0.895000000     4.754000000
C    -0.030000000     4.052000000     3.969000000
H     0.767000000     4.639000000     3.521000000
O     2.463000000     2.784000000     3.473000000
H     1.008000000     1.492000000     2.702000000
C     3.453000000    -0.492000000     3.370000000
C     4.435000000     0.660000000     3.381000000
H     5.393000000     0.137000000     3.337000000
H     4.442000000     1.170000000     4.346000000
C     4.064000000     1.525000000     2.134000000
C     3.200000000     2.610000000     2.308000000
C     2.815000000     3.319000000     1.219000000
H     2.030000000     4.067000000     1.287000000
C     3.461000000     3.206000000     0.020000000
O     3.014000000     3.878000000    -1.126000000
C     2.026000000     3.222000000    -1.952000000
H     1.597000000     2.379000000    -1.391000000
C     0.832000000     4.093000000    -2.348000000
C    -0.149000000     3.590000000    -3.253000000
H     0.114000000     2.664000000    -3.759000000
C     0.489000000     5.093000000    -1.448000000
H     1.226000000     5.464000000    -0.740000000
C    -0.795000000     5.650000000    -1.454000000
O    -1.149000000     6.666000000    -0.646000000
C    -1.689000000     5.242000000    -2.477000000
H    -2.652000000     5.742000000    -2.534000000
C    -1.403000000     4.134000000    -3.269000000
O    -2.377000000     3.591000000    -4.029000000
C    -2.089000000     2.925000000    -5.248000000
C    -2.604000000     1.682000000    -5.395000000
H    -3.032000000     1.201000000    -4.520000000
C    -1.340000000     3.573000000    -6.236000000
H    -0.933000000     4.576000000    -6.134000000
C    -1.175000000     2.785000000    -7.473000000
H    -0.569000000     3.223000000    -8.262000000
C    -1.749000000     1.482000000    -7.612000000
H    -1.761000000     0.840000000    -8.489000000
C    -2.378000000     0.911000000    -6.554000000
O    -2.771000000    -0.439000000    -6.729000000
C    -2.433000000    -1.435000000    -5.726000000
C    -3.367000000    -2.366000000    -5.355000000
H    -4.412000000    -2.257000000    -5.636000000
C    -3.019000000    -3.331000000    -4.400000000
O    -3.937000000    -4.295000000    -4.096000000
C    -3.835000000    -5.140000000    -3.038000000
C    -4.006000000    -4.784000000    -1.700000000
H    -4.156000000    -3.751000000    -1.397000000
C    -3.766000000    -6.533000000    -3.394000000
H    -3.668000000    -6.756000000    -4.453000000
C    -4.089000000    -7.493000000    -2.460000000
H    -4.055000000    -8.544000000    -2.737000000
C    -4.206000000    -7.164000000    -1.119000000
H    -4.270000000    -7.892000000    -0.314000000
C    -4.113000000    -5.851000000    -0.699000000
O    -4.372000000    -5.507000000     0.579000000
C    -3.581000000    -4.674000000     1.290000000
C    -4.228000000    -3.935000000     2.324000000
H    -5.315000000    -3.937000000     2.325000000
C    -3.476000000    -3.097000000     3.226000000
O    -4.167000000    -2.320000000     4.150000000
C    -3.540000000    -1.583000000     5.121000000
C    -3.720000000    -0.184000000     5.177000000
H    -4.222000000     0.448000000     4.449000000
C    -2.716000000    -2.254000000     6.005000000
H    -2.682000000    -3.339000000     5.946000000
C    -2.106000000    -1.571000000     7.069000000
H    -1.670000000    -2.174000000     7.861000000
C    -2.249000000    -0.194000000     7.193000000
H    -1.657000000     0.390000000     7.892000000
C    -3.031000000     0.480000000     6.165000000
O    -2.965000000     1.874000000     5.991000000
C    -1.994000000     2.578000000     5.265000000
C    -2.184000000     3.921000000     5.020000000
H    -3.019000000     4.336000000     5.579000000
C    -1.170000000     4.662000000     4.410000000
O    -1.380000000     5.959000000     4.121000000
C    -0.820000000     6.576000000     2.989000000
C    -0.021000000     7.677000000     3.180000000
H     0.278000000     8.010000000     4.170000000
C     0.442000000     8.397000000     2.083000000
H     0.985000000     9.330000000     2.207000000
C     0.061000000     8.007000000     0.825000000
H     0.439000000     8.453000000    -0.092000000
C    -0.802000000     6.927000000     0.673000000
C    -1.269000000     6.247000000     1.741000000
H    -1.949000000     5.418000000     1.564000000
C    -1.354000000    -0.084000000    -1.246000000
H    -1.683000000    -0.969000000    -1.784000000
C    -0.072000000    -0.145000000    -0.683000000
H     0.590000000    -1.004000000    -0.770000000
C     0.424000000     0.764000000     0.197000000
H     1.400000000     0.706000000     0.641000000
C    -0.343000000     1.914000000     0.390000000
H     0.030000000     2.701000000     1.039000000
C    -1.634000000     1.999000000    -0.187000000
H    -2.247000000     2.855000000     0.083000000
C    -2.108000000     1.054000000    -0.979000000
C    -3.538000000     1.169000000    -1.532000000
O    -4.379000000     1.743000000    -0.924000000
O    -3.858000000     0.432000000    -2.406000000
O    -5.278000000     4.962000000    -0.972000000
H    -5.714000000     4.681000000    -0.168000000
H    -4.787000000     4.193000000    -1.260000000
O    -7.030000000     2.170000000    -1.447000000
H    -6.093000000     2.136000000    -1.253000000
H    -7.391000000     2.758000000    -0.783000000
O    -4.401000000     2.475000000     1.861000000
H    -3.950000000     1.802000000     2.371000000
H    -4.020000000     2.409000000     0.986000000
O    -8.667000000     1.050000000    -3.200000000
H    -7.965000000     1.421000000    -2.666000000
H    -8.353000000     0.177000000    -3.437000000
O   -10.442000000     1.153000000    -1.202000000
H    -9.919000000     0.837000000    -1.940000000
H    -9.914000000     0.948000000    -0.431000000
O    -6.037000000    -0.323000000    -4.005000000
H    -5.561000000     0.050000000    -3.263000000
H    -5.572000000     0.001000000    -4.776000000
O    -4.988000000     4.930000000     2.728000000
H    -4.922000000     4.096000000     2.263000000
H    -5.248000000     4.688000000     3.617000000
O    -5.019000000     2.857000000    -3.989000000
H    -4.632000000     2.143000000    -3.481000000
H    -4.313000000     3.497000000    -4.078000000
O    -5.190000000    -1.223000000    -1.067000000
H    -4.818000000    -0.561000000    -1.649000000
H    -5.440000000    -0.738000000    -0.281000000
O    -7.580000000    -2.585000000    -1.181000000
H    -7.690000000    -1.841000000    -1.773000000
H    -6.906000000    -2.301000000    -0.563000000
O    -7.199000000     2.168000000     2.772000000
H    -7.566000000     2.275000000     3.650000000
H    -6.253000000     2.126000000     2.911000000
O    -4.780000000     7.430000000    -1.571000000
H    -5.147000000     6.562000000    -1.404000000
H    -5.523000000     7.948000000    -1.882000000
O    -7.041000000     4.673000000    -3.582000000
H    -6.428000000     4.001000000    -3.881000000
H    -6.918000000     4.705000000    -2.633000000
O    -8.176000000    -1.923000000    -3.940000000
H    -7.306000000    -1.524000000    -3.970000000
H    -8.007000000    -2.863000000    -3.891000000
O    -8.893000000     3.090000000    -5.224000000
H    -8.201000000     3.645000000    -4.865000000
H    -9.103000000     2.481000000    -4.516000000
O    -5.392000000     4.290000000    -7.304000000
H    -4.564000000     4.755000000    -7.426000000
H    -5.135000000     3.381000000    -7.149000000
O    -2.822000000    -0.229000000     1.998000000
H    -2.901000000    -1.177000000     1.893000000
H    -2.101000000     0.017000000     1.418000000
O    -8.261000000     3.356000000     0.557000000
H    -7.566000000     3.345000000     1.214000000
H    -9.045000000     3.615000000     1.042000000
O    -6.899000000    -0.155000000     1.002000000
H    -6.610000000     0.641000000     1.449000000
H    -7.837000000    -0.024000000     0.861000000
