215
-1459.62394
C    -1.087000000    -3.158000000    -4.181000000
H    -0.953000000    -3.888000000    -3.387000000
C    -0.050000000    -2.290000000    -4.552000000
C    -0.290000000    -1.497000000    -5.672000000
H     0.435000000    -0.732000000    -5.937000000
C     1.254000000    -2.158000000    -3.671000000
O     1.585000000    -3.437000000    -3.149000000
H     1.066000000    -1.518000000    -2.796000000
O     2.319000000    -1.633000000    -4.448000000
C     2.976000000    -0.673000000    -3.785000000
C     2.600000000     0.646000000    -3.876000000
H     1.761000000     0.894000000    -4.522000000
C     3.173000000     1.636000000    -3.002000000
O     2.633000000     2.913000000    -3.065000000
C     4.234000000     1.306000000    -2.151000000
C     4.904000000     2.285000000    -1.188000000
H     5.849000000     1.865000000    -0.837000000
C     4.098000000     2.468000000     0.095000000
C     4.455000000     1.797000000     1.241000000
H     5.320000000     1.141000000     1.296000000
H     5.076000000     3.235000000    -1.697000000
C     4.683000000    -0.043000000    -2.156000000
H     5.392000000    -0.404000000    -1.415000000
C     4.068000000    -1.030000000    -2.928000000
C     4.396000000    -2.501000000    -2.668000000
H     5.416000000    -2.536000000    -2.280000000
H     4.289000000    -3.105000000    -3.572000000
C     3.477000000    -3.043000000    -1.649000000
C     3.940000000    -3.152000000    -0.322000000
H     4.942000000    -2.788000000    -0.112000000
C     2.153000000    -3.499000000    -1.919000000
C     1.348000000    -3.960000000    -0.882000000
H     0.324000000    -4.282000000    -1.057000000
C     1.852000000    -3.982000000     0.378000000
O     0.984000000    -4.401000000     1.379000000
C     0.417000000    -3.418000000     2.204000000
C    -1.053000000    -3.617000000     2.276000000
C    -1.685000000    -3.690000000     3.552000000
H    -1.095000000    -3.546000000     4.453000000
C    -1.824000000    -3.636000000     1.162000000
H    -1.366000000    -3.577000000     0.178000000
O     1.048000000    -3.521000000     3.499000000
H     0.531000000    -2.366000000     1.905000000
C     3.134000000    -3.613000000     0.709000000
C     3.676000000    -3.689000000     2.170000000
H     4.768000000    -3.696000000     2.196000000
H     3.393000000    -4.616000000     2.674000000
C     3.255000000    -2.464000000     2.980000000
C     3.934000000    -1.288000000     3.069000000
H     4.964000000    -1.306000000     2.723000000
C     2.021000000    -2.565000000     3.646000000
C     1.582000000    -1.449000000     4.446000000
H     0.591000000    -1.515000000     4.888000000
C     2.186000000    -0.203000000     4.313000000
O     1.582000000     0.937000000     4.725000000
C     0.995000000     1.660000000     3.576000000
C    -0.432000000     2.016000000     3.802000000
C    -1.128000000     1.214000000     4.696000000
H    -0.641000000     0.345000000     5.132000000
C    -0.952000000     3.269000000     3.458000000
H    -0.364000000     4.008000000     2.921000000
O     1.758000000     2.908000000     3.385000000
H     1.100000000     1.145000000     2.610000000
C     3.422000000    -0.143000000     3.687000000
C     4.175000000     1.185000000     3.592000000
H     5.258000000     1.077000000     3.502000000
H     4.000000000     1.678000000     4.551000000
C     3.728000000     1.991000000     2.408000000
C     2.663000000     2.881000000     2.396000000
C     2.339000000     3.604000000     1.297000000
H     1.501000000     4.294000000     1.250000000
C     3.096000000     3.437000000     0.161000000
O     2.607000000     4.076000000    -0.984000000
C     1.792000000     3.247000000    -1.943000000
H     1.506000000     2.320000000    -1.425000000
C     0.455000000     3.922000000    -2.378000000
C    -0.315000000     3.278000000    -3.344000000
H     0.035000000     2.397000000    -3.875000000
C    -0.044000000     5.050000000    -1.716000000
H     0.534000000     5.525000000    -0.926000000
C    -1.394000000     5.396000000    -1.936000000
O    -1.997000000     6.304000000    -1.188000000
C    -2.147000000     4.784000000    -2.958000000
H    -3.142000000     5.186000000    -3.130000000
C    -1.649000000     3.706000000    -3.672000000
O    -2.473000000     3.076000000    -4.595000000
C    -2.013000000     2.517000000    -5.803000000
C    -1.951000000     1.112000000    -5.966000000
H    -2.407000000     0.462000000    -5.224000000
C    -1.634000000     3.415000000    -6.854000000
H    -1.546000000     4.478000000    -6.645000000
C    -1.130000000     2.862000000    -8.020000000
H    -0.825000000     3.501000000    -8.845000000
C    -1.193000000     1.526000000    -8.236000000
H    -0.918000000     1.124000000    -9.208000000
C    -1.550000000     0.653000000    -7.208000000
O    -1.742000000    -0.685000000    -7.365000000
C    -1.504000000    -1.604000000    -6.357000000
C    -2.482000000    -2.515000000    -6.014000000
H    -3.372000000    -2.578000000    -6.634000000
C    -2.279000000    -3.187000000    -4.850000000
O    -3.331000000    -4.016000000    -4.491000000
C    -3.425000000    -4.595000000    -3.275000000
C    -3.663000000    -3.791000000    -2.149000000
H    -3.642000000    -2.704000000    -2.145000000
C    -3.431000000    -5.969000000    -3.201000000
H    -3.268000000    -6.504000000    -4.133000000
C    -3.617000000    -6.559000000    -1.964000000
H    -3.738000000    -7.639000000    -1.981000000
C    -3.728000000    -5.815000000    -0.807000000
H    -3.893000000    -6.299000000     0.153000000
C    -3.800000000    -4.438000000    -0.882000000
O    -4.003000000    -3.651000000     0.191000000
C    -3.222000000    -3.647000000     1.288000000
C    -3.853000000    -3.674000000     2.521000000
H    -4.922000000    -3.867000000     2.534000000
C    -3.037000000    -3.736000000     3.651000000
O    -3.548000000    -3.810000000     4.966000000
C    -3.365000000    -2.806000000     5.849000000
C    -3.340000000    -1.428000000     5.474000000
H    -3.492000000    -1.237000000     4.415000000
C    -3.283000000    -3.031000000     7.183000000
H    -3.516000000    -4.040000000     7.511000000
C    -3.053000000    -2.081000000     8.127000000
H    -2.961000000    -2.229000000     9.200000000
C    -2.946000000    -0.724000000     7.753000000
H    -2.807000000     0.039000000     8.514000000
C    -3.066000000    -0.377000000     6.425000000
O    -3.182000000     0.963000000     6.160000000
C    -2.413000000     1.582000000     5.173000000
C    -2.927000000     2.797000000     4.737000000
H    -3.892000000     3.153000000     5.091000000
C    -2.239000000     3.638000000     3.850000000
O    -2.746000000     4.844000000     3.403000000
C    -2.205000000     5.708000000     2.458000000
C    -1.426000000     6.744000000     2.903000000
H    -1.285000000     6.947000000     3.961000000
C    -0.768000000     7.578000000     1.994000000
H    -0.192000000     8.432000000     2.342000000
C    -1.081000000     7.527000000     0.675000000
H    -0.691000000     8.315000000     0.035000000
C    -1.900000000     6.518000000     0.190000000
C    -2.463000000     5.591000000     1.059000000
H    -3.111000000     4.748000000     0.832000000
C    -2.468000000    -0.028000000    -1.722000000
H    -3.171000000    -0.393000000    -2.467000000
C    -1.152000000    -0.446000000    -1.567000000
H    -0.939000000    -1.311000000    -2.189000000
C    -0.264000000     0.117000000    -0.666000000
H     0.711000000    -0.207000000    -0.671000000
C    -0.701000000     1.214000000     0.108000000
H     0.033000000     1.746000000     0.707000000
C    -2.030000000     1.653000000    -0.010000000
H    -2.375000000     2.464000000     0.626000000
C    -2.957000000     0.986000000    -0.855000000
C    -4.452000000     1.367000000    -0.824000000
O    -4.933000000     2.275000000    -0.196000000
O    -5.231000000     0.594000000    -1.340000000
O    -5.194000000     4.739000000    -0.935000000
H    -5.025000000     3.798000000    -0.909000000
H    -6.096000000     4.829000000    -0.626000000
O    -7.593000000     2.050000000    -1.454000000
H    -6.723000000     1.746000000    -1.195000000
H    -7.660000000     2.929000000    -1.081000000
O    -5.290000000     2.022000000     2.518000000
H    -5.256000000     1.067000000     2.560000000
H    -5.298000000     2.221000000     1.582000000
O    -7.129000000     3.151000000    -4.059000000
H    -7.402000000     4.060000000    -3.937000000
H    -7.196000000     2.762000000    -3.186000000
O    -9.880000000     0.305000000    -2.288000000
H   -10.327000000     0.859000000    -1.648000000
H    -9.013000000     0.700000000    -2.382000000
O    -5.986000000    -0.243000000    -3.638000000
H    -5.607000000    -0.068000000    -2.777000000
H    -6.226000000     0.620000000    -3.974000000
O    -6.755000000     3.290000000     4.309000000
H    -6.085000000     2.993000000     3.693000000
H    -6.843000000     2.570000000     4.933000000
O    -5.134000000     3.558000000    -5.729000000
H    -5.707000000     3.077000000    -5.133000000
H    -4.383000000     3.808000000    -5.190000000
O    -6.885000000    -0.938000000     0.563000000
H    -6.596000000    -0.401000000    -0.175000000
H    -6.473000000    -1.789000000     0.416000000
O    -7.107000000    -4.608000000    -1.300000000
H    -7.147000000    -4.102000000    -2.112000000
H    -6.706000000    -4.013000000    -0.667000000
O    -6.067000000    -1.622000000     3.717000000
H    -5.997000000    -1.067000000     4.494000000
H    -5.729000000    -1.080000000     3.004000000
O    -5.921000000    -1.956000000    -6.404000000
H    -6.218000000    -1.256000000    -6.986000000
H    -5.846000000    -1.539000000    -5.546000000
O    -7.940000000     3.833000000     0.802000000
H    -8.192000000     3.159000000     1.433000000
H    -7.944000000     4.646000000     1.305000000
O    -7.376000000    -2.860000000    -3.408000000
H    -6.880000000    -2.042000000    -3.407000000
H    -7.963000000    -2.784000000    -4.161000000
O    -4.013000000    -0.592000000     2.041000000
H    -4.373000000    -0.836000000     1.189000000
H    -3.074000000    -0.760000000     1.962000000
O    -7.530000000     6.898000000     0.195000000
H    -7.993000000     7.471000000     0.806000000
H    -7.877000000     7.135000000    -0.666000000
O    -8.990000000     2.077000000     2.709000000
H    -8.192000000     2.195000000     3.224000000
H    -9.539000000     2.826000000     2.941000000
O   -10.016000000     0.321000000     0.732000000
H    -9.481000000     0.788000000     1.373000000
H    -9.459000000    -0.398000000     0.432000000
O   -11.070000000     2.735000000     0.372000000
H   -10.582000000     3.554000000     0.286000000
H   -10.400000000     2.052000000     0.335000000
