215
-1468.89551
C    -2.079000000    -2.966000000    -4.054000000
H    -1.545000000    -3.913000000    -4.076000000
C    -1.408000000    -1.746000000    -3.894000000
C    -2.104000000    -0.545000000    -3.740000000
H    -1.609000000     0.399000000    -3.526000000
C     0.114000000    -1.754000000    -3.715000000
O     0.621000000    -3.117000000    -3.870000000
H     0.229000000    -1.463000000    -2.660000000
O     0.852000000    -0.829000000    -4.601000000
C     1.795000000    -0.119000000    -3.989000000
C     1.520000000     1.195000000    -3.790000000
H     0.550000000     1.601000000    -4.063000000
C     2.302000000     1.993000000    -3.038000000
O     1.986000000     3.337000000    -2.860000000
C     3.546000000     1.514000000    -2.740000000
C     4.560000000     2.422000000    -2.068000000
H     5.563000000     2.029000000    -2.247000000
C     4.278000000     2.508000000    -0.603000000
C     4.772000000     1.439000000     0.188000000
H     5.404000000     0.648000000    -0.206000000
H     4.503000000     3.418000000    -2.511000000
C     3.916000000     0.165000000    -2.909000000
H     4.876000000    -0.193000000    -2.545000000
C     3.007000000    -0.701000000    -3.584000000
C     3.282000000    -2.240000000    -3.809000000
H     4.365000000    -2.343000000    -3.904000000
H     2.811000000    -2.475000000    -4.766000000
C     2.723000000    -3.151000000    -2.745000000
C     3.471000000    -3.418000000    -1.574000000
H     4.482000000    -3.021000000    -1.553000000
C     1.440000000    -3.608000000    -2.876000000
C     0.853000000    -4.286000000    -1.814000000
H    -0.140000000    -4.719000000    -1.907000000
C     1.622000000    -4.560000000    -0.680000000
O     1.066000000    -5.177000000     0.411000000
C     0.558000000    -4.142000000     1.305000000
C    -0.942000000    -4.583000000     1.676000000
C    -1.583000000    -3.972000000     2.762000000
H    -1.005000000    -3.318000000     3.409000000
C    -1.682000000    -5.343000000     0.743000000
H    -1.219000000    -5.904000000    -0.065000000
O     1.413000000    -4.174000000     2.458000000
H     0.624000000    -3.123000000     0.897000000
C     2.934000000    -4.078000000    -0.503000000
C     3.713000000    -4.287000000     0.775000000
H     4.782000000    -4.230000000     0.558000000
H     3.480000000    -5.254000000     1.224000000
C     3.407000000    -3.161000000     1.783000000
C     4.237000000    -2.051000000     1.742000000
H     5.047000000    -1.941000000     1.026000000
C     2.339000000    -3.123000000     2.627000000
C     2.057000000    -2.077000000     3.492000000
H     1.246000000    -1.935000000     4.201000000
C     2.878000000    -0.962000000     3.413000000
O     2.456000000     0.098000000     4.227000000
C     1.986000000     1.352000000     3.506000000
C     0.764000000     1.978000000     4.093000000
C    -0.323000000     1.140000000     4.470000000
H    -0.283000000     0.085000000     4.213000000
C     0.693000000     3.370000000     4.426000000
H     1.570000000     4.011000000     4.374000000
O     3.022000000     2.317000000     3.335000000
H     1.630000000     0.946000000     2.547000000
C     3.932000000    -0.924000000     2.561000000
C     4.874000000     0.283000000     2.476000000
H     5.895000000     0.020000000     2.191000000
H     4.850000000     0.631000000     3.511000000
C     4.421000000     1.382000000     1.541000000
C     3.567000000     2.366000000     2.081000000
C     3.103000000     3.374000000     1.365000000
H     2.461000000     4.139000000     1.794000000
C     3.381000000     3.452000000    -0.050000000
O     2.639000000     4.292000000    -0.817000000
C     1.574000000     3.707000000    -1.538000000
H     1.448000000     2.768000000    -0.978000000
C     0.280000000     4.479000000    -1.346000000
C    -0.561000000     4.540000000    -2.447000000
H    -0.305000000     3.868000000    -3.262000000
C     0.031000000     5.223000000    -0.226000000
H     0.794000000     5.231000000     0.548000000
C    -1.100000000     6.111000000    -0.146000000
O    -1.392000000     6.997000000     0.863000000
C    -2.035000000     6.024000000    -1.225000000
H    -2.884000000     6.699000000    -1.309000000
C    -1.770000000     5.268000000    -2.391000000
O    -2.816000000     5.201000000    -3.338000000
C    -2.824000000     4.127000000    -4.159000000
C    -3.552000000     2.991000000    -3.709000000
H    -4.132000000     3.084000000    -2.794000000
C    -2.201000000     4.167000000    -5.394000000
H    -1.749000000     5.112000000    -5.683000000
C    -2.265000000     3.096000000    -6.239000000
H    -1.760000000     3.142000000    -7.200000000
C    -2.864000000     1.917000000    -5.822000000
H    -2.820000000     1.072000000    -6.504000000
C    -3.522000000     1.901000000    -4.601000000
O    -4.162000000     0.679000000    -4.159000000
C    -3.451000000    -0.499000000    -4.068000000
C    -4.132000000    -1.689000000    -4.190000000
H    -5.195000000    -1.692000000    -4.419000000
C    -3.430000000    -2.891000000    -4.208000000
O    -4.199000000    -4.022000000    -4.426000000
C    -4.086000000    -5.084000000    -3.612000000
C    -4.021000000    -4.943000000    -2.223000000
H    -3.944000000    -3.922000000    -1.859000000
C    -3.924000000    -6.339000000    -4.202000000
H    -4.041000000    -6.496000000    -5.271000000
C    -3.697000000    -7.500000000    -3.430000000
H    -3.492000000    -8.465000000    -3.887000000
C    -3.717000000    -7.302000000    -2.077000000
H    -3.651000000    -8.162000000    -1.415000000
C    -3.862000000    -6.099000000    -1.410000000
O    -3.904000000    -6.066000000    -0.012000000
C    -3.073000000    -5.493000000     0.878000000
C    -3.619000000    -4.936000000     2.033000000
H    -4.704000000    -4.999000000     2.054000000
C    -2.893000000    -4.216000000     3.030000000
O    -3.546000000    -3.619000000     4.080000000
C    -3.014000000    -2.612000000     4.846000000
C    -2.957000000    -1.304000000     4.411000000
H    -3.286000000    -0.954000000     3.435000000
C    -2.711000000    -2.981000000     6.124000000
H    -2.891000000    -4.014000000     6.410000000
C    -2.191000000    -2.077000000     6.985000000
H    -1.958000000    -2.246000000     8.033000000
C    -2.214000000    -0.692000000     6.585000000
H    -1.842000000     0.078000000     7.256000000
C    -2.643000000    -0.341000000     5.361000000
O    -2.688000000     1.004000000     5.009000000
C    -1.486000000     1.708000000     4.914000000
C    -1.617000000     3.103000000     5.113000000
H    -2.591000000     3.452000000     5.445000000
C    -0.475000000     3.890000000     4.965000000
O    -0.582000000     5.257000000     5.146000000
C    -0.234000000     6.157000000     4.177000000
C     0.697000000     7.167000000     4.448000000
H     1.199000000     7.220000000     5.411000000
C     0.972000000     8.139000000     3.446000000
H     1.762000000     8.870000000     3.598000000
C     0.212000000     7.986000000     2.235000000
H     0.483000000     8.690000000     1.452000000
C    -0.691000000     6.998000000     2.015000000
C    -0.928000000     6.091000000     3.029000000
H    -1.768000000     5.428000000     2.836000000
C    -2.173000000    -0.369000000    -0.142000000
H    -3.022000000    -0.978000000    -0.444000000
C    -0.930000000    -1.062000000    -0.204000000
H    -0.940000000    -2.120000000    -0.454000000
C     0.245000000    -0.338000000     0.093000000
H     1.193000000    -0.943000000     0.111000000
C     0.185000000     1.017000000     0.446000000
H     1.082000000     1.601000000     0.632000000
C    -1.082000000     1.660000000     0.562000000
H    -1.114000000     2.687000000     0.918000000
C    -2.248000000     0.996000000     0.272000000
C    -3.514000000     1.785000000     0.586000000
O    -3.505000000     2.971000000     0.725000000
O    -4.563000000     1.180000000     0.680000000
O    -5.547000000     4.505000000    -0.133000000
H    -5.594000000     5.300000000     0.399000000
H    -4.840000000     3.994000000     0.262000000
O    -8.723000000    -0.110000000     1.188000000
H    -9.149000000    -0.456000000     0.404000000
H    -7.799000000    -0.332000000     1.077000000
O    -4.222000000     6.698000000     1.935000000
H    -4.673000000     7.538000000     2.021000000
H    -3.318000000     6.885000000     2.187000000
O    -4.431000000     4.043000000     3.067000000
H    -4.485000000     4.919000000     2.686000000
H    -4.185000000     3.478000000     2.334000000
O    -6.995000000     2.260000000     0.574000000
H    -6.228000000     1.761000000     0.852000000
H    -6.717000000     3.175000000     0.625000000
O    -4.939000000     4.567000000     6.091000000
H    -5.814000000     4.276000000     5.834000000
H    -4.497000000     4.755000000     5.263000000
O    -8.855000000     2.989000000     2.479000000
H    -8.970000000     2.504000000     3.296000000
H    -8.412000000     2.373000000     1.896000000
O    -6.784000000     5.453000000    -4.454000000
H    -6.908000000     6.261000000    -3.955000000
H    -6.630000000     4.782000000    -3.788000000
O    -5.308000000     1.904000000     4.619000000
H    -4.770000000     1.349000000     5.184000000
H    -4.675000000     2.388000000     4.089000000
O    -5.606000000    -0.146000000     2.750000000
H    -5.074000000     0.204000000     2.035000000
H    -5.780000000     0.610000000     3.311000000
O    -8.303000000     5.316000000     3.525000000
H    -8.256000000     4.491000000     3.042000000
H    -8.187000000     5.064000000     4.441000000
O    -5.859000000    -2.537000000     1.762000000
H    -5.560000000    -1.664000000     2.017000000
H    -6.042000000    -2.979000000     2.591000000
O    -6.447000000    -3.081000000    -0.730000000
H    -6.313000000    -2.292000000    -1.254000000
H    -6.359000000    -2.785000000     0.176000000
O    -5.725000000     0.076000000    -1.468000000
H    -5.201000000     0.539000000    -0.814000000
H    -5.509000000     0.505000000    -2.296000000
O    -6.706000000     3.484000000    -2.533000000
H    -7.534000000     3.194000000    -2.151000000
H    -6.202000000     3.814000000    -1.790000000
O    -7.657000000     3.336000000     5.526000000
H    -7.013000000     2.739000000     5.145000000
H    -8.478000000     2.843000000     5.510000000
O    -9.122000000     2.147000000    -1.293000000
H    -9.452000000     1.255000000    -1.401000000
H    -8.623000000     2.120000000    -0.476000000
O    -7.380000000     1.519000000    -5.086000000
H    -7.734000000     2.048000000    -5.801000000
H    -6.878000000     2.138000000    -4.556000000
O    -7.689000000    -1.026000000    -2.821000000
H    -7.708000000    -0.469000000    -3.599000000
H    -6.945000000    -0.702000000    -2.313000000
