215
-1446.59122
C    -3.507000000     1.690000000    -3.749000000
H    -3.620000000     0.680000000    -4.134000000
C    -2.221000000     2.266000000    -3.813000000
C    -2.116000000     3.579000000    -3.379000000
H    -1.114000000     3.959000000    -3.197000000
C    -1.055000000     1.365000000    -4.106000000
O    -1.252000000     0.099000000    -4.876000000
H    -0.758000000     0.918000000    -3.146000000
O     0.201000000     1.976000000    -4.569000000
C     1.388000000     1.679000000    -3.977000000
C     1.942000000     2.556000000    -3.020000000
H     1.382000000     3.415000000    -2.661000000
C     3.181000000     2.271000000    -2.391000000
O     3.516000000     3.111000000    -1.440000000
C     3.942000000     1.129000000    -2.683000000
C     5.300000000     0.733000000    -2.016000000
H     6.012000000     0.110000000    -2.562000000
C     4.950000000     0.058000000    -0.688000000
C     4.955000000    -1.354000000    -0.599000000
H     5.342000000    -1.948000000    -1.424000000
H     5.913000000     1.635000000    -1.949000000
C     3.412000000     0.221000000    -3.649000000
H     3.980000000    -0.693000000    -3.797000000
C     2.168000000     0.518000000    -4.251000000
C     1.605000000    -0.458000000    -5.242000000
H     2.350000000    -1.054000000    -5.773000000
H     1.073000000    -0.014000000    -6.086000000
C     0.622000000    -1.308000000    -4.463000000
C     1.078000000    -2.530000000    -3.918000000
H     2.124000000    -2.808000000    -4.018000000
C    -0.715000000    -1.035000000    -4.282000000
C    -1.608000000    -1.870000000    -3.669000000
H    -2.647000000    -1.601000000    -3.499000000
C    -1.177000000    -3.148000000    -3.200000000
O    -2.053000000    -3.957000000    -2.487000000
C    -1.874000000    -3.785000000    -1.061000000
C    -3.232000000    -3.631000000    -0.305000000
C    -3.390000000    -3.894000000     1.041000000
H    -2.523000000    -4.166000000     1.637000000
C    -4.259000000    -3.149000000    -1.009000000
H    -4.111000000    -2.893000000    -2.055000000
O    -1.089000000    -4.793000000    -0.441000000
H    -1.359000000    -2.830000000    -0.882000000
C     0.219000000    -3.440000000    -3.224000000
C     0.722000000    -4.767000000    -2.756000000
H     1.535000000    -5.219000000    -3.327000000
H    -0.126000000    -5.448000000    -2.851000000
C     1.206000000    -4.525000000    -1.331000000
C     2.520000000    -4.155000000    -0.980000000
H     3.252000000    -4.140000000    -1.784000000
C     0.265000000    -4.639000000    -0.329000000
C     0.640000000    -4.429000000     0.990000000
H    -0.061000000    -4.266000000     1.806000000
C     1.842000000    -3.947000000     1.255000000
O     2.046000000    -3.562000000     2.579000000
C     2.204000000    -2.160000000     2.843000000
C     1.473000000    -1.759000000     4.171000000
C     0.364000000    -2.491000000     4.616000000
H     0.186000000    -3.467000000     4.173000000
C     1.811000000    -0.587000000     4.815000000
H     2.717000000    -0.095000000     4.470000000
O     3.637000000    -1.857000000     2.785000000
H     1.695000000    -1.679000000     1.995000000
C     2.911000000    -3.912000000     0.316000000
C     4.347000000    -3.528000000     0.629000000
H     5.091000000    -3.966000000    -0.041000000
H     4.708000000    -3.841000000     1.611000000
C     4.527000000    -1.999000000     0.549000000
C     4.160000000    -1.282000000     1.660000000
C     4.172000000     0.112000000     1.644000000
H     3.959000000     0.723000000     2.517000000
C     4.612000000     0.811000000     0.471000000
O     4.516000000     2.116000000     0.458000000
C     3.352000000     2.690000000    -0.053000000
H     2.540000000     1.966000000    -0.211000000
C     2.747000000     3.875000000     0.751000000
C     1.872000000     4.912000000     0.245000000
H     1.733000000     4.861000000    -0.831000000
C     3.013000000     3.920000000     2.121000000
H     3.642000000     3.151000000     2.563000000
C     2.487000000     4.888000000     2.932000000
O     2.916000000     5.016000000     4.223000000
C     1.557000000     5.811000000     2.425000000
H     1.072000000     6.467000000     3.144000000
C     1.307000000     5.925000000     1.072000000
O     0.443000000     6.915000000     0.596000000
C    -0.165000000     6.974000000    -0.636000000
C    -1.264000000     6.178000000    -0.927000000
H    -1.674000000     5.511000000    -0.173000000
C     0.249000000     7.886000000    -1.563000000
H     1.112000000     8.499000000    -1.317000000
C    -0.324000000     8.015000000    -2.828000000
H    -0.076000000     8.762000000    -3.579000000
C    -1.391000000     7.187000000    -3.159000000
H    -2.020000000     7.277000000    -4.041000000
C    -1.859000000     6.291000000    -2.182000000
O    -3.024000000     5.601000000    -2.400000000
C    -3.193000000     4.340000000    -2.968000000
C    -4.458000000     3.753000000    -2.886000000
H    -5.298000000     4.212000000    -2.372000000
C    -4.593000000     2.403000000    -3.276000000
O    -5.885000000     1.829000000    -3.227000000
C    -6.131000000     0.473000000    -3.342000000
C    -6.142000000    -0.333000000    -2.200000000
H    -5.861000000     0.086000000    -1.238000000
C    -6.192000000    -0.102000000    -4.627000000
H    -5.858000000     0.491000000    -5.475000000
C    -6.458000000    -1.448000000    -4.775000000
H    -6.605000000    -1.758000000    -5.807000000
C    -6.592000000    -2.242000000    -3.546000000
H    -6.971000000    -3.259000000    -3.607000000
C    -6.433000000    -1.690000000    -2.300000000
O    -6.504000000    -2.477000000    -1.136000000
C    -5.519000000    -2.997000000    -0.426000000
C    -5.638000000    -3.061000000     0.953000000
H    -6.555000000    -2.721000000     1.427000000
C    -4.625000000    -3.648000000     1.650000000
O    -4.839000000    -3.982000000     2.980000000
C    -3.761000000    -4.298000000     3.826000000
C    -3.192000000    -3.329000000     4.624000000
H    -3.558000000    -2.307000000     4.674000000
C    -3.270000000    -5.614000000     3.753000000
H    -3.752000000    -6.457000000     3.265000000
C    -2.209000000    -5.896000000     4.631000000
H    -1.693000000    -6.845000000     4.756000000
C    -1.572000000    -4.878000000     5.364000000
H    -0.744000000    -5.041000000     6.049000000
C    -2.054000000    -3.546000000     5.353000000
O    -1.532000000    -2.611000000     6.150000000
C    -0.404000000    -2.003000000     5.659000000
C    -0.071000000    -0.840000000     6.319000000
H    -0.742000000    -0.509000000     7.107000000
C     1.068000000    -0.119000000     5.893000000
O     1.371000000     1.051000000     6.557000000
C     2.398000000     1.870000000     6.139000000
C     3.720000000     1.627000000     6.535000000
H     3.970000000     0.744000000     7.116000000
C     4.695000000     2.496000000     6.062000000
H     5.716000000     2.355000000     6.406000000
C     4.381000000     3.662000000     5.371000000
H     5.151000000     4.371000000     5.077000000
C     3.092000000     3.891000000     4.981000000
C     2.092000000     2.979000000     5.345000000
H     1.053000000     3.191000000     5.108000000
C    -1.710000000     0.220000000     3.014000000
H    -2.267000000    -0.202000000     3.847000000
C    -1.455000000    -0.582000000     1.903000000
H    -1.864000000    -1.589000000     1.934000000
C    -0.721000000    -0.070000000     0.814000000
H    -0.312000000    -0.714000000     0.040000000
C    -0.366000000     1.283000000     0.856000000
H     0.191000000     1.676000000     0.010000000
C    -0.572000000     2.081000000     1.995000000
H    -0.292000000     3.131000000     1.984000000
C    -1.244000000     1.566000000     3.071000000
C    -1.604000000     2.395000000     4.313000000
O    -1.519000000     3.592000000     4.191000000
O    -2.328000000     1.851000000     5.154000000
O    -0.608000000     1.572000000     8.700000000
H    -0.315000000     1.584000000     7.788000000
H    -0.461000000     2.465000000     9.011000000
O    -6.040000000    -1.945000000     7.045000000
H    -5.159000000    -1.572000000     7.004000000
H    -6.283000000    -1.884000000     7.969000000
O    -5.869000000     6.781000000     5.048000000
H    -6.748000000     6.564000000     5.358000000
H    -5.325000000     6.049000000     5.337000000
O    -0.332000000     5.497000000     5.691000000
H    -0.229000000     6.249000000     5.107000000
H    -0.591000000     4.779000000     5.114000000
O     0.669000000     3.978000000     9.623000000
H     1.005000000     4.611000000     8.989000000
H     1.367000000     3.897000000    10.273000000
O    -6.384000000     3.536000000     0.060000000
H    -6.833000000     4.380000000     0.112000000
H    -5.508000000     3.709000000     0.404000000
O    -6.436000000     0.991000000     6.486000000
H    -5.745000000     0.511000000     6.029000000
H    -6.517000000     1.813000000     6.003000000
O    -2.646000000     5.616000000     2.913000000
H    -1.924000000     6.234000000     3.032000000
H    -2.419000000     4.873000000     3.472000000
O    -4.456000000     0.723000000     2.034000000
H    -3.657000000     0.980000000     1.575000000
H    -4.234000000    -0.109000000     2.454000000
O    -1.833000000     5.277000000     8.033000000
H    -2.431000000     4.573000000     7.781000000
H    -1.124000000     5.230000000     7.391000000
O    -3.014000000     0.188000000     9.117000000
H    -2.310000000     0.811000000     9.302000000
H    -3.556000000     0.199000000     9.906000000
O    -1.958000000     7.709000000     6.564000000
H    -1.895000000     7.525000000     5.627000000
H    -2.053000000     6.847000000     6.971000000
O    -3.810000000     3.831000000     1.281000000
H    -3.443000000     4.633000000     1.653000000
H    -3.632000000     3.159000000     1.939000000
O    -3.192000000     2.841000000     7.237000000
H    -2.591000000     2.388000000     7.828000000
H    -3.024000000     2.450000000     6.379000000
O    -4.793000000     6.957000000     2.514000000
H    -3.946000000     6.511000000     2.485000000
H    -5.034000000     6.953000000     3.440000000
O    -3.771000000    -0.088000000     6.393000000
H    -3.522000000     0.056000000     7.306000000
H    -3.365000000     0.637000000     5.917000000
O    -7.062000000     1.486000000     1.887000000
H    -6.804000000     2.098000000     1.198000000
H    -6.234000000     1.170000000     2.248000000
O    -1.237000000     7.818000000     3.607000000
H    -1.450000000     8.480000000     2.949000000
H    -0.479000000     8.176000000     4.069000000
O    -4.298000000     4.666000000     5.639000000
H    -4.110000000     4.049000000     6.346000000
H    -3.682000000     4.430000000     4.945000000
