215
-1448.33345
C    -2.812000000    -3.145000000    -3.177000000
H    -2.437000000    -4.056000000    -2.718000000
C    -1.995000000    -2.168000000    -3.750000000
C    -2.536000000    -0.942000000    -4.135000000
H    -1.913000000    -0.094000000    -4.408000000
C    -0.454000000    -2.363000000    -3.564000000
O    -0.076000000    -3.779000000    -3.344000000
H    -0.074000000    -1.750000000    -2.734000000
O     0.251000000    -1.936000000    -4.798000000
C     1.372000000    -1.220000000    -4.489000000
C     1.182000000     0.136000000    -4.484000000
H     0.323000000     0.708000000    -4.825000000
C     2.091000000     0.915000000    -3.835000000
O     1.768000000     2.291000000    -3.663000000
C     3.323000000     0.418000000    -3.402000000
C     4.401000000     1.374000000    -2.906000000
H     5.414000000     0.992000000    -3.042000000
C     4.156000000     1.672000000    -1.368000000
C     4.826000000     0.888000000    -0.390000000
H     5.462000000     0.071000000    -0.721000000
H     4.389000000     2.293000000    -3.495000000
C     3.524000000    -0.991000000    -3.447000000
H     4.416000000    -1.444000000    -3.020000000
C     2.576000000    -1.844000000    -4.008000000
C     2.691000000    -3.363000000    -3.814000000
H     3.745000000    -3.545000000    -4.037000000
H     2.204000000    -3.990000000    -4.564000000
C     2.157000000    -3.707000000    -2.443000000
C     3.027000000    -3.754000000    -1.362000000
H     4.070000000    -3.524000000    -1.565000000
C     0.823000000    -4.008000000    -2.295000000
C     0.316000000    -4.343000000    -1.062000000
H    -0.727000000    -4.597000000    -0.896000000
C     1.144000000    -4.431000000    -0.019000000
O     0.563000000    -4.773000000     1.229000000
C     0.266000000    -3.695000000     2.113000000
C    -1.126000000    -3.690000000     2.647000000
C    -1.482000000    -2.707000000     3.552000000
H    -0.690000000    -2.019000000     3.835000000
C    -2.105000000    -4.480000000     2.163000000
H    -1.997000000    -5.153000000     1.316000000
O     1.297000000    -3.677000000     3.168000000
H     0.390000000    -2.798000000     1.488000000
C     2.545000000    -4.137000000    -0.095000000
C     3.465000000    -4.151000000     1.100000000
H     4.474000000    -4.269000000     0.699000000
H     3.339000000    -4.984000000     1.796000000
C     3.413000000    -2.948000000     2.048000000
C     4.253000000    -1.952000000     1.706000000
H     5.065000000    -2.037000000     0.989000000
C     2.317000000    -2.825000000     2.991000000
C     2.239000000    -1.575000000     3.674000000
H     1.501000000    -1.426000000     4.458000000
C     3.110000000    -0.546000000     3.297000000
O     2.865000000     0.691000000     3.877000000
C     2.345000000     1.808000000     3.168000000
C     1.276000000     2.640000000     3.972000000
C     0.609000000     2.075000000     5.119000000
H     0.859000000     1.054000000     5.395000000
C     0.933000000     3.897000000     3.542000000
H     1.578000000     4.308000000     2.770000000
O     3.390000000     2.532000000     2.626000000
H     1.767000000     1.372000000     2.340000000
C     4.152000000    -0.772000000     2.402000000
C     5.180000000     0.311000000     2.079000000
H     6.169000000     0.015000000     1.723000000
H     5.468000000     0.794000000     3.015000000
C     4.529000000     1.164000000     0.981000000
C     3.716000000     2.180000000     1.325000000
C     3.157000000     2.970000000     0.328000000
H     2.489000000     3.809000000     0.503000000
C     3.326000000     2.698000000    -0.994000000
O     2.552000000     3.480000000    -1.835000000
C     1.400000000     2.830000000    -2.427000000
H     0.969000000     1.991000000    -1.861000000
C     0.236000000     3.796000000    -2.626000000
C    -0.533000000     3.774000000    -3.750000000
H    -0.477000000     2.915000000    -4.413000000
C     0.099000000     4.737000000    -1.654000000
H     0.731000000     4.782000000    -0.770000000
C    -0.838000000     5.703000000    -1.863000000
O    -1.111000000     6.625000000    -0.890000000
C    -1.709000000     5.800000000    -2.940000000
H    -2.422000000     6.619000000    -3.007000000
C    -1.558000000     4.739000000    -3.853000000
O    -2.353000000     4.775000000    -4.971000000
C    -2.776000000     3.580000000    -5.569000000
C    -3.482000000     2.689000000    -4.735000000
H    -3.721000000     2.970000000    -3.713000000
C    -2.523000000     3.243000000    -6.865000000
H    -1.960000000     3.975000000    -7.438000000
C    -2.803000000     1.900000000    -7.306000000
H    -2.557000000     1.524000000    -8.296000000
C    -3.519000000     1.051000000    -6.475000000
H    -3.756000000     0.036000000    -6.785000000
C    -3.870000000     1.469000000    -5.184000000
O    -4.456000000     0.572000000    -4.308000000
C    -3.927000000    -0.682000000    -3.927000000
C    -4.793000000    -1.686000000    -3.463000000
H    -5.863000000    -1.493000000    -3.483000000
C    -4.260000000    -2.922000000    -3.170000000
O    -5.116000000    -3.753000000    -2.563000000
C    -4.687000000    -4.642000000    -1.564000000
C    -4.803000000    -4.421000000    -0.158000000
H    -5.110000000    -3.460000000     0.246000000
C    -4.311000000    -5.951000000    -1.988000000
H    -4.351000000    -6.076000000    -3.067000000
C    -4.007000000    -6.952000000    -1.150000000
H    -3.659000000    -7.920000000    -1.502000000
C    -4.062000000    -6.693000000     0.209000000
H    -3.621000000    -7.362000000     0.944000000
C    -4.449000000    -5.417000000     0.740000000
O    -4.377000000    -5.205000000     2.091000000
C    -3.420000000    -4.401000000     2.641000000
C    -3.647000000    -3.553000000     3.717000000
H    -4.550000000    -3.776000000     4.281000000
C    -2.711000000    -2.627000000     4.136000000
O    -3.023000000    -1.747000000     5.135000000
C    -2.170000000    -1.102000000     6.045000000
C    -1.888000000     0.221000000     5.959000000
H    -2.206000000     0.781000000     5.084000000
C    -1.741000000    -1.865000000     7.172000000
H    -1.813000000    -2.950000000     7.174000000
C    -0.983000000    -1.223000000     8.179000000
H    -0.712000000    -1.825000000     9.042000000
C    -0.735000000     0.138000000     8.065000000
H    -0.174000000     0.674000000     8.828000000
C    -1.171000000     0.840000000     6.931000000
O    -0.984000000     2.184000000     6.860000000
C    -0.402000000     2.799000000     5.783000000
C    -0.723000000     4.073000000     5.342000000
H    -1.577000000     4.636000000     5.709000000
C    -0.038000000     4.613000000     4.227000000
O    -0.470000000     5.913000000     3.831000000
C    -0.149000000     6.573000000     2.667000000
C     1.155000000     7.088000000     2.605000000
H     1.741000000     7.270000000     3.503000000
C     1.640000000     7.502000000     1.382000000
H     2.620000000     7.967000000     1.310000000
C     0.835000000     7.385000000     0.248000000
H     1.224000000     7.833000000    -0.663000000
C    -0.428000000     6.764000000     0.315000000
C    -0.960000000     6.431000000     1.553000000
H    -1.943000000     5.978000000     1.650000000
C    -2.824000000    -1.168000000     0.481000000
H    -3.793000000    -1.601000000     0.248000000
C    -1.700000000    -1.499000000    -0.325000000
H    -1.809000000    -2.217000000    -1.133000000
C    -0.464000000    -0.979000000    -0.027000000
H     0.411000000    -1.244000000    -0.702000000
C    -0.335000000    -0.110000000     1.054000000
H     0.660000000     0.272000000     1.267000000
C    -1.394000000     0.404000000     1.802000000
H    -1.258000000     1.135000000     2.595000000
C    -2.653000000    -0.222000000     1.484000000
C    -3.822000000     0.327000000     2.231000000
O    -3.791000000     1.388000000     2.782000000
O    -4.904000000    -0.173000000     2.007000000
O    -2.426000000     1.547000000    -1.013000000
H    -2.398000000     2.192000000    -0.307000000
H    -1.814000000     0.864000000    -0.738000000
O    -8.956000000     3.274000000     0.427000000
H    -8.101000000     3.660000000     0.240000000
H    -9.285000000     3.770000000     1.176000000
O    -4.318000000     3.240000000     4.660000000
H    -4.009000000     2.556000000     4.066000000
H    -5.258000000     3.078000000     4.743000000
O    -7.262000000    -4.514000000     3.299000000
H    -6.846000000    -5.338000000     3.552000000
H    -8.076000000    -4.778000000     2.870000000
O    -9.194000000    -1.136000000    -0.609000000
H    -8.657000000    -1.821000000    -0.211000000
H    -8.663000000    -0.804000000    -1.331000000
O   -10.167000000     1.023000000     3.108000000
H   -10.572000000     1.505000000     3.829000000
H    -9.369000000     0.654000000     3.485000000
O    -3.009000000     3.346000000     1.061000000
H    -3.420000000     2.718000000     1.655000000
H    -3.032000000     4.176000000     1.537000000
O    -8.073000000     3.228000000     4.193000000
H    -7.561000000     2.868000000     3.468000000
H    -8.108000000     2.520000000     4.836000000
O    -7.377000000    -0.908000000     3.308000000
H    -6.618000000    -0.409000000     3.006000000
H    -7.847000000    -1.139000000     2.506000000
O    -7.478000000    -3.190000000     0.925000000
H    -6.828000000    -2.526000000     0.698000000
H    -7.166000000    -3.559000000     1.751000000
O    -6.133000000    -0.979000000    -0.074000000
H    -5.707000000    -0.786000000     0.761000000
H    -5.959000000    -0.209000000    -0.616000000
O    -5.199000000     1.342000000    -1.335000000
H    -5.267000000     1.284000000    -2.288000000
H    -4.259000000     1.306000000    -1.159000000
O    -4.795000000     4.123000000     7.271000000
H    -4.479000000     4.086000000     6.369000000
H    -4.249000000     3.494000000     7.742000000
O    -8.345000000     0.693000000     5.520000000
H    -7.780000000     0.209000000     4.918000000
H    -8.038000000     0.441000000     6.391000000
O    -4.619000000     4.148000000    -1.718000000
H    -5.260000000     4.185000000    -1.008000000
H    -3.789000000     3.959000000    -1.281000000
O    -4.424000000     5.365000000     2.673000000
H    -3.885000000     6.006000000     3.137000000
H    -4.794000000     4.817000000     3.365000000
O    -3.879000000    -4.579000000     7.088000000
H    -3.141000000    -4.995000000     6.643000000
H    -4.191000000    -3.919000000     6.470000000
O    -6.476000000     2.110000000     2.396000000
H    -5.779000000     1.465000000     2.517000000
H    -6.187000000     2.637000000     1.650000000
O    -6.705000000     5.042000000     0.488000000
H    -6.123000000     5.335000000     1.189000000
H    -6.992000000     5.849000000     0.061000000
