215
-1478.05283
C    -2.805000000    -2.597000000    -3.508000000
H    -2.552000000    -3.607000000    -3.197000000
C    -1.916000000    -1.612000000    -3.822000000
C    -2.448000000    -0.364000000    -4.195000000
H    -1.767000000     0.475000000    -4.309000000
C    -0.384000000    -1.744000000    -3.794000000
O     0.017000000    -3.144000000    -3.922000000
H    -0.121000000    -1.451000000    -2.767000000
O     0.215000000    -0.846000000    -4.730000000
C     1.274000000    -0.132000000    -4.239000000
C     1.112000000     1.193000000    -4.034000000
H     0.110000000     1.566000000    -4.231000000
C     2.160000000     1.906000000    -3.408000000
O     1.969000000     3.263000000    -3.185000000
C     3.410000000     1.320000000    -3.132000000
C     4.530000000     2.150000000    -2.482000000
H     5.449000000     1.604000000    -2.705000000
C     4.415000000     2.200000000    -0.940000000
C     5.065000000     1.334000000    -0.034000000
H     5.831000000     0.631000000    -0.352000000
H     4.546000000     3.149000000    -2.923000000
C     3.542000000    -0.045000000    -3.332000000
H     4.441000000    -0.621000000    -3.128000000
C     2.489000000    -0.780000000    -3.905000000
C     2.775000000    -2.259000000    -4.241000000
H     3.854000000    -2.390000000    -4.354000000
H     2.284000000    -2.598000000    -5.156000000
C     2.259000000    -3.062000000    -3.033000000
C     3.111000000    -3.363000000    -2.005000000
H     4.147000000    -3.036000000    -1.972000000
C     0.931000000    -3.523000000    -3.008000000
C     0.500000000    -4.265000000    -1.955000000
H    -0.500000000    -4.690000000    -1.935000000
C     1.387000000    -4.516000000    -0.923000000
O     0.937000000    -5.128000000     0.231000000
C     0.538000000    -4.166000000     1.217000000
C    -0.879000000    -4.372000000     1.733000000
C    -1.205000000    -3.671000000     2.884000000
H    -0.459000000    -3.112000000     3.444000000
C    -1.887000000    -5.025000000     1.058000000
H    -1.617000000    -5.633000000     0.198000000
O     1.526000000    -4.100000000     2.201000000
H     0.564000000    -3.173000000     0.745000000
C     2.692000000    -4.095000000    -0.931000000
C     3.643000000    -4.294000000     0.259000000
H     4.687000000    -4.304000000    -0.060000000
H     3.487000000    -5.301000000     0.651000000
C     3.513000000    -3.087000000     1.239000000
C     4.507000000    -2.101000000     1.267000000
H     5.333000000    -2.086000000     0.560000000
C     2.479000000    -3.084000000     2.196000000
C     2.290000000    -2.002000000     3.096000000
H     1.461000000    -1.968000000     3.799000000
C     3.205000000    -0.942000000     2.986000000
O     2.971000000     0.159000000     3.802000000
C     2.233000000     1.271000000     3.286000000
C     1.041000000     1.694000000     4.209000000
C     0.583000000     0.970000000     5.273000000
H     1.226000000     0.173000000     5.637000000
C     0.383000000     2.823000000     3.756000000
H     0.653000000     3.303000000     2.819000000
O     3.244000000     2.272000000     3.086000000
H     1.763000000     0.987000000     2.334000000
C     4.384000000    -1.021000000     2.146000000
C     5.319000000     0.226000000     2.200000000
H     6.323000000    -0.045000000     1.867000000
H     5.422000000     0.599000000     3.221000000
C     4.748000000     1.296000000     1.322000000
C     3.808000000     2.255000000     1.783000000
C     3.414000000     3.291000000     0.969000000
H     2.742000000     3.980000000     1.474000000
C     3.660000000     3.249000000    -0.416000000
O     3.011000000     4.150000000    -1.231000000
C     1.776000000     3.742000000    -1.853000000
H     1.334000000     2.906000000    -1.291000000
C     0.819000000     4.924000000    -1.874000000
C    -0.256000000     4.767000000    -2.794000000
H    -0.182000000     3.956000000    -3.514000000
C     0.724000000     5.871000000    -0.849000000
H     1.581000000     5.954000000    -0.184000000
C    -0.444000000     6.649000000    -0.762000000
O    -0.591000000     7.473000000     0.376000000
C    -1.552000000     6.422000000    -1.577000000
H    -2.470000000     6.983000000    -1.422000000
C    -1.429000000     5.511000000    -2.579000000
O    -2.546000000     5.327000000    -3.411000000
C    -2.767000000     4.347000000    -4.265000000
C    -3.437000000     3.176000000    -3.915000000
H    -3.827000000     3.071000000    -2.906000000
C    -2.145000000     4.327000000    -5.570000000
H    -1.427000000     5.055000000    -5.939000000
C    -2.449000000     3.313000000    -6.500000000
H    -1.939000000     3.269000000    -7.459000000
C    -3.129000000     2.245000000    -6.097000000
H    -3.279000000     1.433000000    -6.804000000
C    -3.650000000     2.149000000    -4.819000000
O    -4.407000000     1.061000000    -4.553000000
C    -3.835000000    -0.119000000    -4.195000000
C    -4.704000000    -1.059000000    -3.734000000
H    -5.787000000    -0.965000000    -3.722000000
C    -4.180000000    -2.317000000    -3.419000000
O    -5.052000000    -3.364000000    -3.195000000
C    -4.878000000    -4.516000000    -2.476000000
C    -4.506000000    -4.531000000    -1.142000000
H    -4.219000000    -3.566000000    -0.732000000
C    -5.266000000    -5.688000000    -3.070000000
H    -5.525000000    -5.585000000    -4.121000000
C    -5.286000000    -6.865000000    -2.377000000
H    -5.491000000    -7.802000000    -2.890000000
C    -4.936000000    -6.893000000    -1.039000000
H    -4.925000000    -7.834000000    -0.494000000
C    -4.620000000    -5.704000000    -0.383000000
O    -4.252000000    -5.798000000     0.946000000
C    -3.207000000    -5.068000000     1.506000000
C    -3.517000000    -4.442000000     2.662000000
H    -4.541000000    -4.502000000     3.020000000
C    -2.533000000    -3.690000000     3.348000000
O    -2.942000000    -2.945000000     4.430000000
C    -2.086000000    -2.522000000     5.413000000
C    -2.024000000    -1.153000000     5.782000000
H    -2.654000000    -0.463000000     5.226000000
C    -1.376000000    -3.430000000     6.242000000
H    -1.412000000    -4.478000000     5.956000000
C    -0.610000000    -3.004000000     7.300000000
H    -0.167000000    -3.659000000     8.046000000
C    -0.553000000    -1.582000000     7.593000000
H     0.033000000    -1.149000000     8.400000000
C    -1.163000000    -0.666000000     6.753000000
O    -1.026000000     0.668000000     6.933000000
C    -0.623000000     1.313000000     5.865000000
C    -1.346000000     2.415000000     5.399000000
H    -2.312000000     2.606000000     5.859000000
C    -0.831000000     3.137000000     4.317000000
O    -1.531000000     4.218000000     3.791000000
C    -0.897000000     5.399000000     3.388000000
C    -0.086000000     6.122000000     4.251000000
H     0.044000000     5.697000000     5.243000000
C     0.418000000     7.319000000     3.852000000
H     1.038000000     7.896000000     4.532000000
C     0.226000000     7.802000000     2.559000000
H     0.679000000     8.774000000     2.383000000
C    -0.423000000     6.994000000     1.630000000
C    -0.979000000     5.820000000     2.041000000
H    -1.579000000     5.183000000     1.396000000
C    -2.329000000    -1.282000000     0.693000000
H    -3.245000000    -1.865000000     0.654000000
C    -1.184000000    -1.506000000    -0.113000000
H    -1.111000000    -2.370000000    -0.768000000
C    -0.190000000    -0.548000000    -0.108000000
H     0.542000000    -0.663000000    -0.848000000
C    -0.208000000     0.509000000     0.712000000
H     0.596000000     1.236000000     0.632000000
C    -1.315000000     0.711000000     1.607000000
H    -1.389000000     1.562000000     2.279000000
C    -2.404000000    -0.176000000     1.542000000
C    -3.659000000     0.121000000     2.346000000
O    -3.689000000     1.075000000     3.088000000
O    -4.651000000    -0.547000000     2.242000000
O    -7.349000000     1.389000000    -2.439000000
H    -7.741000000     0.595000000    -2.803000000
H    -6.665000000     1.070000000    -1.850000000
O    -7.670000000    -2.177000000    -0.507000000
H    -6.886000000    -2.401000000    -0.005000000
H    -8.054000000    -3.023000000    -0.739000000
O    -7.183000000     1.376000000     6.706000000
H    -6.385000000     1.799000000     6.389000000
H    -7.610000000     2.044000000     7.243000000
O   -10.024000000    -0.175000000     2.842000000
H    -9.399000000     0.142000000     2.190000000
H    -9.502000000    -0.291000000     3.636000000
O    -4.947000000     2.480000000     4.923000000
H    -4.370000000     1.902000000     4.423000000
H    -5.768000000     2.482000000     4.431000000
O    -7.200000000     2.736000000     3.377000000
H    -8.029000000     2.589000000     3.833000000
H    -7.225000000     3.660000000     3.126000000
O    -3.816000000     3.657000000     2.395000000
H    -3.098000000     3.456000000     2.995000000
H    -4.321000000     2.845000000     2.346000000
O    -1.955000000     2.446000000    -0.974000000
H    -1.637000000     1.814000000    -0.330000000
H    -2.057000000     1.937000000    -1.779000000
O    -9.151000000     0.301000000     0.140000000
H    -8.243000000     0.528000000     0.345000000
H    -9.093000000    -0.555000000    -0.283000000
O    -5.705000000    -1.689000000     4.307000000
H    -5.208000000    -1.140000000     3.700000000
H    -5.057000000    -2.297000000     4.665000000
O    -8.064000000    -0.466000000     4.838000000
H    -7.298000000    -1.009000000     4.651000000
H    -7.776000000     0.123000000     5.535000000
O    -8.922000000    -3.143000000     2.515000000
H    -8.822000000    -3.110000000     3.466000000
H    -8.431000000    -2.386000000     2.195000000
O    -5.524000000    -2.562000000     1.286000000
H    -5.632000000    -3.127000000     2.051000000
H    -5.139000000    -1.757000000     1.634000000
O    -5.534000000    -0.067000000    -0.951000000
H    -5.515000000    -1.017000000    -0.832000000
H    -5.916000000     0.269000000    -0.140000000
O    -5.530000000     4.790000000     6.198000000
H    -4.806000000     4.860000000     6.820000000
H    -5.316000000     4.024000000     5.666000000
O    -4.237000000     5.699000000     0.428000000
H    -3.916000000     6.463000000     0.907000000
H    -3.968000000     4.952000000     0.962000000
O    -4.098000000     5.813000000     3.872000000
H    -4.747000000     5.532000000     4.517000000
H    -3.854000000     5.010000000     3.412000000
O    -6.744000000     3.640000000     0.436000000
H    -5.788000000     3.633000000     0.389000000
H    -6.964000000     2.868000000     0.958000000
O    -6.681000000     0.969000000     1.341000000
H    -6.877000000     1.566000000     2.063000000
H    -5.962000000     0.426000000     1.667000000
