215
-1440.91528
C    -3.019000000    -2.038000000    -3.749000000
H    -2.644000000    -3.020000000    -3.473000000
C    -2.162000000    -0.991000000    -4.065000000
C    -2.731000000     0.229000000    -4.357000000
H    -2.038000000     1.016000000    -4.646000000
C    -0.649000000    -1.123000000    -4.032000000
O    -0.259000000    -2.521000000    -4.229000000
H    -0.225000000    -0.771000000    -3.080000000
O     0.051000000    -0.432000000    -5.075000000
C     1.227000000     0.184000000    -4.785000000
C     1.076000000     1.553000000    -4.523000000
H     0.112000000     2.012000000    -4.725000000
C     2.004000000     2.240000000    -3.782000000
O     1.593000000     3.416000000    -3.263000000
C     3.195000000     1.545000000    -3.389000000
C     4.235000000     2.282000000    -2.585000000
H     5.242000000     2.022000000    -2.918000000
C     3.962000000     2.110000000    -1.136000000
C     4.693000000     1.150000000    -0.390000000
H     5.367000000     0.499000000    -0.941000000
H     4.165000000     3.346000000    -2.823000000
C     3.462000000     0.250000000    -3.911000000
H     4.403000000    -0.268000000    -3.743000000
C     2.392000000    -0.427000000    -4.454000000
C     2.520000000    -2.018000000    -4.555000000
H     3.566000000    -2.299000000    -4.694000000
H     1.969000000    -2.365000000    -5.431000000
C     1.989000000    -2.732000000    -3.335000000
C     2.847000000    -3.212000000    -2.352000000
H     3.903000000    -2.958000000    -2.396000000
C     0.612000000    -3.024000000    -3.217000000
C     0.074000000    -3.804000000    -2.188000000
H    -0.997000000    -3.939000000    -2.322000000
C     0.993000000    -4.273000000    -1.203000000
O     0.502000000    -4.894000000    -0.101000000
C     0.468000000    -4.104000000     1.094000000
C    -0.924000000    -4.214000000     1.762000000
C    -1.087000000    -3.812000000     3.086000000
H    -0.251000000    -3.415000000     3.656000000
C    -2.043000000    -4.633000000     1.099000000
H    -1.940000000    -4.961000000     0.068000000
O     1.456000000    -4.356000000     2.061000000
H     0.476000000    -3.037000000     0.826000000
C     2.381000000    -4.006000000    -1.300000000
C     3.410000000    -4.409000000    -0.217000000
H     4.417000000    -4.563000000    -0.610000000
H     3.094000000    -5.371000000     0.192000000
C     3.438000000    -3.359000000     0.916000000
C     4.306000000    -2.294000000     0.858000000
H     4.956000000    -2.317000000    -0.013000000
C     2.499000000    -3.465000000     1.959000000
C     2.499000000    -2.500000000     2.952000000
H     1.734000000    -2.492000000     3.723000000
C     3.416000000    -1.441000000     2.942000000
O     3.106000000    -0.390000000     3.894000000
C     2.413000000     0.824000000     3.372000000
C     1.480000000     1.346000000     4.431000000
C     1.196000000     0.493000000     5.541000000
H     1.669000000    -0.485000000     5.595000000
C     0.938000000     2.606000000     4.350000000
H     1.258000000     3.336000000     3.611000000
O     3.387000000     1.764000000     2.960000000
H     1.797000000     0.424000000     2.553000000
C     4.292000000    -1.313000000     1.864000000
C     5.255000000    -0.124000000     1.706000000
H     6.174000000    -0.464000000     1.223000000
H     5.548000000     0.156000000     2.720000000
C     4.544000000     1.018000000     0.961000000
C     3.697000000     1.917000000     1.652000000
C     2.945000000     2.809000000     0.932000000
H     2.284000000     3.461000000     1.496000000
C     3.103000000     2.958000000    -0.424000000
O     2.395000000     3.964000000    -1.074000000
C     1.263000000     3.530000000    -1.840000000
H     0.940000000     2.566000000    -1.420000000
C     0.074000000     4.455000000    -1.506000000
C    -0.909000000     4.525000000    -2.517000000
H    -0.699000000     4.042000000    -3.469000000
C    -0.082000000     5.114000000    -0.247000000
H     0.625000000     4.978000000     0.567000000
C    -1.140000000     6.039000000    -0.147000000
O    -1.390000000     6.678000000     1.045000000
C    -2.024000000     6.233000000    -1.203000000
H    -2.825000000     6.958000000    -1.083000000
C    -1.884000000     5.506000000    -2.394000000
O    -2.779000000     5.735000000    -3.442000000
C    -3.081000000     4.759000000    -4.427000000
C    -3.715000000     3.546000000    -4.099000000
H    -4.119000000     3.399000000    -3.101000000
C    -2.633000000     5.028000000    -5.708000000
H    -1.958000000     5.858000000    -5.905000000
C    -2.890000000     4.101000000    -6.714000000
H    -2.608000000     4.305000000    -7.743000000
C    -3.467000000     2.869000000    -6.388000000
H    -3.758000000     2.157000000    -7.155000000
C    -3.970000000     2.627000000    -5.114000000
O    -4.670000000     1.507000000    -4.845000000
C    -4.107000000     0.401000000    -4.437000000
C    -4.916000000    -0.630000000    -4.016000000
H    -5.999000000    -0.600000000    -4.099000000
C    -4.347000000    -1.831000000    -3.529000000
O    -5.199000000    -2.823000000    -2.988000000
C    -4.864000000    -3.962000000    -2.354000000
C    -4.796000000    -3.951000000    -0.956000000
H    -4.979000000    -2.991000000    -0.478000000
C    -4.509000000    -5.093000000    -3.059000000
H    -4.560000000    -5.081000000    -4.145000000
C    -4.138000000    -6.227000000    -2.322000000
H    -3.801000000    -7.147000000    -2.793000000
C    -4.232000000    -6.239000000    -0.952000000
H    -4.108000000    -7.202000000    -0.463000000
C    -4.497000000    -5.114000000    -0.249000000
O    -4.404000000    -5.043000000     1.116000000
C    -3.262000000    -4.657000000     1.720000000
C    -3.389000000    -4.254000000     3.057000000
H    -4.392000000    -4.225000000     3.476000000
C    -2.321000000    -3.738000000     3.742000000
O    -2.547000000    -3.287000000     5.004000000
C    -1.565000000    -2.966000000     5.928000000
C    -1.227000000    -1.669000000     6.222000000
H    -1.769000000    -0.910000000     5.664000000
C    -0.924000000    -4.029000000     6.608000000
H    -1.329000000    -5.027000000     6.460000000
C     0.078000000    -3.775000000     7.507000000
H     0.642000000    -4.547000000     8.025000000
C     0.416000000    -2.402000000     7.764000000
H     1.229000000    -2.213000000     8.460000000
C    -0.308000000    -1.344000000     7.133000000
O    -0.100000000    -0.012000000     7.486000000
C     0.305000000     0.881000000     6.468000000
C    -0.390000000     2.091000000     6.272000000
H    -1.208000000     2.229000000     6.974000000
C    -0.077000000     2.993000000     5.299000000
O    -0.847000000     4.152000000     5.091000000
C    -0.391000000     5.100000000     4.220000000
C     0.826000000     5.732000000     4.471000000
H     1.309000000     5.468000000     5.409000000
C     1.318000000     6.633000000     3.528000000
H     2.178000000     7.269000000     3.726000000
C     0.645000000     6.834000000     2.394000000
H     1.056000000     7.550000000     1.687000000
C    -0.693000000     6.382000000     2.193000000
C    -1.156000000     5.441000000     3.117000000
H    -2.143000000     5.003000000     2.988000000
C    -2.120000000    -0.899000000     0.801000000
H    -2.985000000    -1.551000000     0.706000000
C    -1.118000000    -1.094000000    -0.073000000
H    -1.213000000    -1.901000000    -0.794000000
C     0.038000000    -0.285000000    -0.142000000
H     0.830000000    -0.434000000    -0.882000000
C     0.057000000     0.799000000     0.669000000
H     0.923000000     1.456000000     0.631000000
C    -0.993000000     0.991000000     1.618000000
H    -0.964000000     1.856000000     2.276000000
C    -2.066000000     0.125000000     1.731000000
C    -3.166000000     0.456000000     2.686000000
O    -3.253000000     1.609000000     2.947000000
O    -4.081000000    -0.259000000     2.795000000
O    -8.285000000    -1.929000000    -1.109000000
H    -7.339000000    -1.784000000    -1.135000000
H    -8.473000000    -2.118000000    -0.190000000
O    -6.383000000    -0.341000000     7.852000000
H    -5.480000000    -0.225000000     7.554000000
H    -6.453000000     0.215000000     8.627000000
O    -9.300000000    -1.289000000     4.163000000
H    -9.340000000    -0.592000000     3.508000000
H    -9.286000000    -0.829000000     5.002000000
O    -5.862000000     2.169000000     3.944000000
H    -5.032000000     1.696000000     3.887000000
H    -6.467000000     1.656000000     3.407000000
O    -4.603000000     3.520000000     1.120000000
H    -4.471000000     3.132000000     1.986000000
H    -3.725000000     3.564000000     0.742000000
O    -2.080000000     1.980000000    -1.514000000
H    -1.565000000     1.660000000    -0.772000000
H    -2.524000000     1.202000000    -1.851000000
O    -8.527000000     0.689000000     2.528000000
H    -7.984000000     0.105000000     1.999000000
H    -8.973000000     1.246000000     1.890000000
O    -5.104000000    -1.812000000     4.932000000
H    -4.812000000    -1.214000000     4.244000000
H    -4.313000000    -2.003000000     5.436000000
O    -7.153000000    -2.319000000     2.922000000
H    -6.365000000    -2.436000000     3.452000000
H    -7.762000000    -1.855000000     3.496000000
O    -4.321000000     2.672000000     8.174000000
H    -5.141000000     2.411000000     7.754000000
H    -4.547000000     2.773000000     9.098000000
O    -5.815000000    -1.171000000     0.816000000
H    -6.181000000    -1.748000000     1.486000000
H    -4.978000000    -0.882000000     1.179000000
O    -8.180000000     2.478000000    -1.582000000
H    -7.319000000     2.252000000    -1.231000000
H    -8.763000000     2.444000000    -0.823000000
O    -3.897000000     4.187000000     4.722000000
H    -4.703000000     3.711000000     4.923000000
H    -3.345000000     3.544000000     4.277000000
O    -2.310000000     0.842000000     9.588000000
H    -1.470000000     1.065000000     9.990000000
H    -2.403000000     1.465000000     8.867000000
O    -3.223000000     6.311000000     6.634000000
H    -3.220000000     5.495000000     6.133000000
H    -2.939000000     6.054000000     7.511000000
O    -7.217000000     4.814000000     3.559000000
H    -7.285000000     4.315000000     4.373000000
H    -6.757000000     4.230000000     2.957000000
O    -3.534000000    -0.892000000     7.909000000
H    -3.111000000    -0.389000000     8.605000000
H    -3.206000000    -1.784000000     8.026000000
O    -6.028000000     1.586000000    -0.225000000
H    -5.870000000     0.720000000     0.151000000
H    -5.619000000     2.193000000     0.391000000
O    -5.944000000     5.252000000    -0.251000000
H    -5.737000000     6.007000000     0.299000000
H    -5.548000000     4.508000000     0.203000000
