215
-1454.30577
C    -2.898000000    -1.753000000    -3.688000000
H    -2.428000000    -2.663000000    -3.323000000
C    -2.004000000    -0.764000000    -4.175000000
C    -2.588000000     0.384000000    -4.718000000
H    -1.811000000     1.016000000    -5.141000000
C    -0.499000000    -1.034000000    -4.067000000
O    -0.245000000    -2.474000000    -4.157000000
H    -0.180000000    -0.773000000    -3.047000000
O     0.172000000    -0.304000000    -5.103000000
C     1.283000000     0.324000000    -4.630000000
C     1.056000000     1.693000000    -4.289000000
H     0.076000000     2.132000000    -4.460000000
C     2.109000000     2.307000000    -3.574000000
O     1.967000000     3.569000000    -3.055000000
C     3.293000000     1.637000000    -3.259000000
C     4.431000000     2.279000000    -2.396000000
H     5.443000000     1.941000000    -2.626000000
C     4.164000000     2.255000000    -0.886000000
C     4.756000000     1.138000000    -0.195000000
H     5.375000000     0.368000000    -0.648000000
H     4.603000000     3.276000000    -2.806000000
C     3.511000000     0.379000000    -3.727000000
H     4.478000000    -0.063000000    -3.503000000
C     2.536000000    -0.369000000    -4.431000000
C     2.641000000    -1.848000000    -4.688000000
H     3.726000000    -1.959000000    -4.741000000
H     2.224000000    -2.184000000    -5.640000000
C     2.116000000    -2.583000000    -3.482000000
C     3.092000000    -3.069000000    -2.585000000
H     4.136000000    -3.047000000    -2.885000000
C     0.807000000    -2.986000000    -3.343000000
C     0.380000000    -3.763000000    -2.226000000
H    -0.625000000    -4.036000000    -1.916000000
C     1.347000000    -4.139000000    -1.306000000
O     0.838000000    -4.838000000    -0.265000000
C     0.688000000    -4.132000000     0.957000000
C    -0.628000000    -4.503000000     1.634000000
C    -0.683000000    -4.469000000     3.001000000
H     0.251000000    -4.369000000     3.548000000
C    -1.868000000    -4.517000000     0.935000000
H    -1.882000000    -4.473000000    -0.151000000
O     1.796000000    -4.438000000     1.857000000
H     0.667000000    -3.043000000     0.803000000
C     2.670000000    -3.793000000    -1.433000000
C     3.635000000    -4.123000000    -0.345000000
H     4.636000000    -4.136000000    -0.781000000
H     3.491000000    -5.146000000     0.010000000
C     3.597000000    -3.209000000     0.869000000
C     4.417000000    -2.077000000     0.940000000
H     4.999000000    -1.786000000     0.069000000
C     2.765000000    -3.513000000     1.944000000
C     2.677000000    -2.657000000     3.017000000
H     1.829000000    -2.723000000     3.693000000
C     3.459000000    -1.489000000     3.066000000
O     3.073000000    -0.497000000     3.998000000
C     2.407000000     0.776000000     3.597000000
C     1.350000000     1.199000000     4.527000000
C     0.635000000     0.225000000     5.241000000
H     0.947000000    -0.811000000     5.141000000
C     1.038000000     2.558000000     4.716000000
H     1.591000000     3.274000000     4.113000000
O     3.347000000     1.818000000     3.222000000
H     1.923000000     0.612000000     2.622000000
C     4.396000000    -1.254000000     2.077000000
C     5.198000000    -0.040000000     2.012000000
H     6.122000000    -0.329000000     1.507000000
H     5.467000000     0.308000000     3.012000000
C     4.492000000     1.014000000     1.179000000
C     3.638000000     1.944000000     1.857000000
C     3.085000000     3.012000000     1.154000000
H     2.446000000     3.692000000     1.712000000
C     3.380000000     3.251000000    -0.217000000
O     2.495000000     4.169000000    -0.749000000
C     1.561000000     3.582000000    -1.667000000
H     1.328000000     2.554000000    -1.353000000
C     0.225000000     4.321000000    -1.475000000
C    -0.608000000     4.615000000    -2.554000000
H    -0.273000000     4.376000000    -3.560000000
C    -0.201000000     4.656000000    -0.195000000
H     0.374000000     4.352000000     0.676000000
C    -1.489000000     5.196000000     0.023000000
O    -2.044000000     5.382000000     1.249000000
C    -2.253000000     5.575000000    -1.085000000
H    -3.145000000     6.171000000    -0.915000000
C    -1.797000000     5.260000000    -2.348000000
O    -2.602000000     5.677000000    -3.374000000
C    -2.736000000     4.881000000    -4.470000000
C    -3.504000000     3.739000000    -4.385000000
H    -4.008000000     3.606000000    -3.431000000
C    -2.363000000     5.315000000    -5.728000000
H    -1.694000000     6.162000000    -5.855000000
C    -2.562000000     4.576000000    -6.874000000
H    -2.271000000     4.989000000    -7.837000000
C    -3.218000000     3.312000000    -6.694000000
H    -3.500000000     2.689000000    -7.539000000
C    -3.752000000     2.904000000    -5.440000000
O    -4.511000000     1.743000000    -5.386000000
C    -3.968000000     0.532000000    -4.808000000
C    -4.853000000    -0.429000000    -4.252000000
H    -5.928000000    -0.287000000    -4.316000000
C    -4.306000000    -1.530000000    -3.620000000
O    -5.151000000    -2.547000000    -3.148000000
C    -4.757000000    -3.689000000    -2.518000000
C    -4.573000000    -3.735000000    -1.146000000
H    -4.558000000    -2.766000000    -0.653000000
C    -4.888000000    -4.890000000    -3.268000000
H    -5.094000000    -4.904000000    -4.335000000
C    -4.685000000    -6.098000000    -2.596000000
H    -4.856000000    -6.994000000    -3.188000000
C    -4.464000000    -6.094000000    -1.190000000
H    -4.419000000    -7.067000000    -0.707000000
C    -4.414000000    -4.920000000    -0.428000000
O    -4.278000000    -4.909000000     0.958000000
C    -3.047000000    -4.688000000     1.606000000
C    -3.090000000    -4.674000000     2.987000000
H    -4.036000000    -4.956000000     3.441000000
C    -1.918000000    -4.599000000     3.678000000
O    -1.967000000    -4.701000000     5.052000000
C    -1.344000000    -3.917000000     5.928000000
C    -1.513000000    -2.550000000     5.854000000
H    -2.286000000    -2.094000000     5.242000000
C    -0.523000000    -4.491000000     6.922000000
H    -0.386000000    -5.567000000     6.864000000
C     0.190000000    -3.656000000     7.762000000
H     0.974000000    -4.079000000     8.385000000
C    -0.066000000    -2.301000000     7.689000000
H     0.366000000    -1.615000000     8.413000000
C    -0.887000000    -1.756000000     6.779000000
O    -1.088000000    -0.376000000     6.796000000
C    -0.467000000     0.571000000     6.026000000
C    -0.857000000     1.925000000     6.137000000
H    -1.695000000     2.261000000     6.742000000
C    -0.050000000     2.910000000     5.521000000
O    -0.340000000     4.226000000     5.667000000
C    -0.422000000     5.094000000     4.574000000
C    -0.028000000     6.400000000     4.776000000
H     0.435000000     6.627000000     5.733000000
C    -0.369000000     7.371000000     3.834000000
H    -0.263000000     8.425000000     4.077000000
C    -0.915000000     6.937000000     2.641000000
H    -1.160000000     7.677000000     1.883000000
C    -1.376000000     5.635000000     2.433000000
C    -1.101000000     4.676000000     3.392000000
H    -1.391000000     3.634000000     3.283000000
C    -2.247000000    -0.943000000     0.529000000
H    -3.229000000    -1.409000000     0.563000000
C    -1.302000000    -1.375000000    -0.404000000
H    -1.476000000    -2.205000000    -1.084000000
C    -0.070000000    -0.622000000    -0.482000000
H     0.669000000    -0.956000000    -1.158000000
C     0.157000000     0.429000000     0.410000000
H     1.054000000     1.001000000     0.187000000
C    -0.857000000     0.780000000     1.358000000
H    -0.720000000     1.668000000     1.970000000
C    -2.030000000     0.053000000     1.459000000
C    -3.118000000     0.511000000     2.263000000
O    -2.952000000     1.432000000     2.991000000
O    -4.241000000     0.075000000     2.105000000
O    -6.965000000     0.084000000     6.107000000
H    -6.096000000    -0.273000000     5.927000000
H    -6.937000000     0.331000000     7.031000000
O    -6.076000000     1.555000000     3.722000000
H    -6.526000000     0.807000000     4.115000000
H    -5.376000000     1.166000000     3.198000000
O    -4.848000000     3.388000000     2.131000000
H    -5.586000000     2.999000000     2.600000000
H    -4.083000000     2.906000000     2.445000000
O    -2.652000000     1.449000000    -1.138000000
H    -2.587000000     0.859000000    -0.386000000
H    -2.154000000     2.224000000    -0.878000000
O    -4.976000000     4.066000000    -0.596000000
H    -5.126000000     3.174000000    -0.911000000
H    -4.775000000     3.961000000     0.334000000
O    -8.014000000     1.847000000     1.194000000
H    -7.887000000     2.521000000     1.863000000
H    -8.909000000     1.538000000     1.333000000
O    -5.290000000    -1.516000000     3.980000000
H    -4.700000000    -1.410000000     3.234000000
H    -4.712000000    -1.531000000     4.743000000
O    -9.334000000    -0.770000000     5.145000000
H    -9.046000000    -1.602000000     4.770000000
H    -8.530000000    -0.361000000     5.466000000
O    -7.875000000    -3.008000000     3.803000000
H    -7.657000000    -3.859000000     4.182000000
H    -7.054000000    -2.516000000     3.829000000
O    -6.216000000     0.017000000     0.320000000
H    -5.587000000     0.026000000     1.042000000
H    -6.848000000     0.700000000     0.544000000
O    -4.202000000     3.293000000     5.124000000
H    -4.204000000     2.784000000     5.934000000
H    -3.803000000     2.712000000     4.477000000
O    -7.910000000    -2.233000000    -0.526000000
H    -8.119000000    -1.516000000     0.072000000
H    -7.067000000    -2.565000000    -0.216000000
O    -4.145000000     2.002000000     7.421000000
H    -4.981000000     1.861000000     7.864000000
H    -3.642000000     2.549000000     8.025000000
O    -5.167000000     6.308000000     2.608000000
H    -5.343000000     5.369000000     2.558000000
H    -4.565000000     6.399000000     3.347000000
O    -3.921000000     6.003000000     5.293000000
H    -3.207000000     6.179000000     5.906000000
H    -3.976000000     5.049000000     5.257000000
O    -4.152000000    -0.500000000     6.297000000
H    -3.881000000     0.388000000     6.529000000
H    -3.869000000    -1.037000000     7.037000000
O    -5.382000000     1.664000000    -1.616000000
H    -5.724000000     1.163000000    -0.876000000
H    -4.436000000     1.522000000    -1.584000000
O    -7.016000000     3.400000000     5.845000000
H    -6.323000000     3.060000000     5.280000000
H    -7.515000000     2.626000000     6.106000000
O    -7.971000000     4.325000000     2.937000000
H    -7.765000000     5.067000000     3.507000000
H    -8.576000000     3.790000000     3.450000000
