215
-1456.43493
C    -2.463000000    -1.482000000    -4.471000000
H    -1.998000000    -2.398000000    -4.115000000
C    -1.627000000    -0.375000000    -4.849000000
C    -2.264000000     0.821000000    -5.106000000
H    -1.619000000     1.695000000    -5.153000000
C    -0.201000000    -0.428000000    -4.439000000
O     0.306000000    -1.721000000    -4.692000000
H    -0.230000000    -0.165000000    -3.371000000
O     0.532000000     0.563000000    -5.081000000
C     1.466000000     1.295000000    -4.409000000
C     1.004000000     2.532000000    -3.863000000
H    -0.007000000     2.900000000    -4.019000000
C     1.864000000     3.175000000    -2.917000000
O     1.280000000     4.103000000    -2.074000000
C     3.116000000     2.592000000    -2.589000000
C     4.019000000     3.254000000    -1.589000000
H     5.050000000     3.054000000    -1.887000000
C     3.894000000     2.764000000    -0.091000000
C     4.595000000     1.725000000     0.396000000
H     5.110000000     1.160000000    -0.377000000
H     3.934000000     4.343000000    -1.622000000
C     3.560000000     1.457000000    -3.277000000
H     4.511000000     1.032000000    -2.968000000
C     2.702000000     0.758000000    -4.170000000
C     3.073000000    -0.624000000    -4.671000000
H     4.141000000    -0.808000000    -4.811000000
H     2.602000000    -0.734000000    -5.650000000
C     2.598000000    -1.744000000    -3.753000000
C     3.477000000    -2.192000000    -2.846000000
H     4.458000000    -1.738000000    -2.732000000
C     1.310000000    -2.316000000    -3.971000000
C     0.939000000    -3.353000000    -3.100000000
H    -0.050000000    -3.790000000    -3.217000000
C     1.882000000    -3.861000000    -2.172000000
O     1.351000000    -4.747000000    -1.298000000
C     1.037000000    -4.162000000     0.036000000
C    -0.360000000    -4.559000000     0.603000000
C    -0.849000000    -4.274000000     1.863000000
H    -0.197000000    -3.790000000     2.585000000
C    -1.295000000    -5.065000000    -0.331000000
H    -1.019000000    -5.267000000    -1.363000000
O     2.079000000    -4.432000000     1.004000000
H     0.947000000    -3.076000000    -0.112000000
C     3.135000000    -3.270000000    -1.998000000
C     4.104000000    -3.796000000    -0.893000000
H     5.165000000    -3.744000000    -1.148000000
H     3.971000000    -4.870000000    -0.749000000
C     3.921000000    -3.001000000     0.382000000
C     4.706000000    -1.875000000     0.681000000
H     5.483000000    -1.570000000    -0.015000000
C     2.937000000    -3.430000000     1.317000000
C     2.615000000    -2.655000000     2.419000000
H     1.745000000    -2.826000000     3.047000000
C     3.514000000    -1.612000000     2.778000000
O     3.275000000    -0.836000000     3.974000000
C     2.587000000     0.442000000     3.870000000
C     1.534000000     0.632000000     4.934000000
C     0.771000000    -0.517000000     5.354000000
H     0.922000000    -1.504000000     4.924000000
C     1.236000000     1.871000000     5.406000000
H     1.847000000     2.731000000     5.146000000
O     3.546000000     1.516000000     3.859000000
H     2.072000000     0.412000000     2.898000000
C     4.531000000    -1.172000000     1.885000000
C     5.380000000     0.084000000     2.214000000
H     6.261000000     0.104000000     1.569000000
H     5.782000000     0.197000000     3.223000000
C     4.521000000     1.286000000     1.771000000
C     3.733000000     2.023000000     2.613000000
C     2.914000000     3.001000000     2.147000000
H     2.176000000     3.482000000     2.784000000
C     2.970000000     3.379000000     0.794000000
O     2.076000000     4.302000000     0.262000000
C     1.120000000     3.752000000    -0.646000000
H     1.197000000     2.659000000    -0.545000000
C    -0.374000000     4.124000000    -0.329000000
C    -1.272000000     4.586000000    -1.295000000
H    -1.007000000     4.744000000    -2.337000000
C    -0.803000000     4.056000000     0.982000000
H    -0.061000000     3.674000000     1.678000000
C    -2.045000000     4.410000000     1.433000000
O    -2.554000000     4.241000000     2.675000000
C    -2.979000000     4.708000000     0.469000000
H    -3.986000000     4.867000000     0.847000000
C    -2.617000000     4.825000000    -0.892000000
O    -3.626000000     5.255000000    -1.691000000
C    -3.654000000     4.904000000    -3.018000000
C    -3.873000000     3.659000000    -3.460000000
H    -4.086000000     2.839000000    -2.779000000
C    -3.603000000     5.951000000    -3.950000000
H    -3.396000000     6.975000000    -3.648000000
C    -3.511000000     5.692000000    -5.287000000
H    -3.416000000     6.512000000    -5.994000000
C    -3.776000000     4.415000000    -5.759000000
H    -3.837000000     4.175000000    -6.818000000
C    -3.851000000     3.396000000    -4.818000000
O    -4.306000000     2.135000000    -5.232000000
C    -3.669000000     0.973000000    -5.006000000
C    -4.460000000    -0.177000000    -4.733000000
H    -5.538000000    -0.039000000    -4.688000000
C    -3.835000000    -1.422000000    -4.532000000
O    -4.637000000    -2.507000000    -4.232000000
C    -4.163000000    -3.713000000    -3.902000000
C    -3.922000000    -4.049000000    -2.557000000
H    -4.124000000    -3.343000000    -1.756000000
C    -3.840000000    -4.579000000    -4.892000000
H    -3.975000000    -4.203000000    -5.903000000
C    -3.436000000    -5.864000000    -4.542000000
H    -3.241000000    -6.579000000    -5.337000000
C    -3.250000000    -6.276000000    -3.260000000
H    -3.064000000    -7.324000000    -3.044000000
C    -3.532000000    -5.382000000    -2.250000000
O    -3.444000000    -5.871000000    -0.964000000
C    -2.583000000    -5.349000000    -0.016000000
C    -3.065000000    -5.001000000     1.240000000
H    -4.125000000    -5.104000000     1.453000000
C    -2.203000000    -4.443000000     2.198000000
O    -2.739000000    -4.124000000     3.418000000
C    -1.999000000    -4.139000000     4.582000000
C    -1.764000000    -2.907000000     5.118000000
H    -2.233000000    -2.000000000     4.746000000
C    -1.283000000    -5.259000000     5.100000000
H    -1.520000000    -6.196000000     4.601000000
C    -0.537000000    -5.125000000     6.223000000
H    -0.056000000    -5.997000000     6.658000000
C    -0.338000000    -3.832000000     6.797000000
H     0.312000000    -3.674000000     7.654000000
C    -0.950000000    -2.716000000     6.249000000
O    -0.839000000    -1.469000000     6.872000000
C    -0.175000000    -0.386000000     6.356000000
C    -0.425000000     0.848000000     6.858000000
H    -1.195000000     1.031000000     7.604000000
C     0.174000000     1.986000000     6.332000000
O    -0.122000000     3.275000000     6.737000000
C    -0.717000000     4.163000000     5.857000000
C    -0.513000000     5.519000000     6.136000000
H    -0.026000000     5.846000000     7.051000000
C    -1.097000000     6.464000000     5.284000000
H    -0.968000000     7.522000000     5.500000000
C    -1.764000000     6.021000000     4.132000000
H    -2.149000000     6.762000000     3.436000000
C    -1.887000000     4.686000000     3.857000000
C    -1.336000000     3.741000000     4.678000000
H    -1.484000000     2.681000000     4.486000000
C    -1.535000000    -1.100000000    -0.263000000
H    -2.067000000    -1.733000000    -0.969000000
C    -0.208000000    -0.725000000    -0.551000000
H     0.254000000    -1.191000000    -1.418000000
C     0.429000000     0.096000000     0.345000000
H     1.449000000     0.519000000     0.147000000
C    -0.126000000     0.410000000     1.593000000
H     0.461000000     1.001000000     2.291000000
C    -1.387000000    -0.004000000     1.867000000
H    -1.823000000     0.307000000     2.813000000
C    -2.168000000    -0.746000000     0.920000000
C    -3.561000000    -1.310000000     1.169000000
O    -4.094000000    -1.137000000     2.219000000
O    -4.290000000    -1.703000000     0.240000000
O    -7.387000000    -2.895000000    -3.549000000
H    -6.533000000    -2.605000000    -3.869000000
H    -7.488000000    -2.457000000    -2.704000000
O    -5.926000000     2.629000000     0.417000000
H    -6.713000000     2.756000000    -0.113000000
H    -5.894000000     1.686000000     0.577000000
O    -4.972000000    -4.568000000     6.378000000
H    -5.283000000    -3.672000000     6.502000000
H    -4.579000000    -4.566000000     5.505000000
O    -2.698000000     1.501000000    -0.934000000
H    -1.978000000     2.059000000    -1.226000000
H    -2.383000000     1.109000000    -0.120000000
O    -7.456000000    -0.590000000     3.879000000
H    -7.807000000    -0.409000000     4.751000000
H    -6.937000000    -1.387000000     3.991000000
O    -5.489000000    -2.496000000     3.814000000
H    -5.259000000    -2.216000000     4.700000000
H    -4.890000000    -2.013000000     3.246000000
O    -6.566000000    -5.813000000     3.822000000
H    -6.457000000    -6.522000000     3.189000000
H    -5.704000000    -5.399000000     3.869000000
O    -6.951000000    -0.472000000     1.144000000
H    -6.187000000    -1.040000000     1.046000000
H    -7.128000000    -0.468000000     2.085000000
O    -6.379000000    -3.348000000    -0.443000000
H    -5.543000000    -2.923000000    -0.252000000
H    -6.144000000    -4.250000000    -0.661000000
O    -8.458000000     2.374000000    -0.505000000
H    -8.414000000     1.755000000     0.223000000
H    -9.338000000     2.747000000    -0.449000000
O    -4.720000000     1.041000000     3.664000000
H    -3.897000000     1.095000000     4.150000000
H    -4.705000000     0.171000000     3.264000000
O    -9.002000000    -3.515000000     0.092000000
H    -8.162000000    -3.446000000    -0.362000000
H    -8.935000000    -2.891000000     0.815000000
O    -6.577000000     4.638000000     2.134000000
H    -7.442000000     4.647000000     1.725000000
H    -6.131000000     3.892000000     1.733000000
O    -5.082000000    -1.732000000     6.397000000
H    -5.145000000    -0.777000000     6.407000000
H    -4.632000000    -1.951000000     7.213000000
O    -5.396000000     0.165000000    -1.355000000
H    -4.827000000    -0.325000000    -0.761000000
H    -4.908000000     0.965000000    -1.549000000
O    -6.511000000     2.822000000     4.405000000
H    -5.889000000     2.121000000     4.214000000
H    -6.486000000     3.382000000     3.629000000
O    -8.049000000    -3.154000000     2.571000000
H    -7.813000000    -4.075000000     2.678000000
H    -7.307000000    -2.672000000     2.936000000
O    -9.426000000     0.908000000     1.867000000
H    -9.882000000     0.327000000     1.258000000
H    -8.902000000     0.320000000     2.411000000
O    -7.932000000    -1.230000000    -1.501000000
H    -7.221000000    -0.683000000    -1.835000000
H    -7.668000000    -1.447000000    -0.607000000
