215
-1444.23791
C    -1.732000000    -1.607000000    -4.746000000
H    -1.235000000    -2.557000000    -4.572000000
C    -1.045000000    -0.405000000    -4.707000000
C    -1.720000000     0.759000000    -5.024000000
H    -1.225000000     1.725000000    -5.071000000
C     0.402000000    -0.350000000    -4.222000000
O     1.079000000    -1.564000000    -4.517000000
H     0.352000000    -0.246000000    -3.128000000
O     1.044000000     0.743000000    -4.791000000
C     1.850000000     1.494000000    -4.000000000
C     1.438000000     2.732000000    -3.555000000
H     0.418000000     2.992000000    -3.827000000
C     2.214000000     3.463000000    -2.639000000
O     1.615000000     4.505000000    -1.949000000
C     3.421000000     2.984000000    -2.193000000
C     4.207000000     3.626000000    -1.021000000
H     5.271000000     3.410000000    -1.144000000
C     3.810000000     3.109000000     0.363000000
C     4.467000000     2.022000000     0.886000000
H     5.243000000     1.458000000     0.374000000
H     4.212000000     4.717000000    -0.983000000
C     3.887000000     1.783000000    -2.704000000
H     4.903000000     1.477000000    -2.471000000
C     3.094000000     1.033000000    -3.535000000
C     3.615000000    -0.318000000    -3.983000000
H     4.703000000    -0.371000000    -3.905000000
H     3.608000000    -0.557000000    -5.049000000
C     3.141000000    -1.482000000    -3.200000000
C     3.884000000    -2.010000000    -2.180000000
H     4.881000000    -1.589000000    -2.071000000
C     1.886000000    -2.037000000    -3.538000000
C     1.400000000    -3.112000000    -2.781000000
H     0.445000000    -3.547000000    -3.064000000
C     2.118000000    -3.614000000    -1.708000000
O     1.495000000    -4.497000000    -0.942000000
C     0.994000000    -4.181000000     0.364000000
C    -0.289000000    -4.965000000     0.615000000
C    -0.637000000    -5.247000000     1.916000000
H     0.064000000    -5.088000000     2.731000000
C    -1.215000000    -5.137000000    -0.349000000
H    -0.947000000    -4.866000000    -1.367000000
O     1.986000000    -4.489000000     1.295000000
H     0.725000000    -3.119000000     0.456000000
C     3.407000000    -3.127000000    -1.463000000
C     4.263000000    -3.650000000    -0.337000000
H     5.331000000    -3.484000000    -0.496000000
H     4.082000000    -4.716000000    -0.183000000
C     3.838000000    -2.994000000     0.995000000
C     4.405000000    -1.732000000     1.346000000
H     5.221000000    -1.378000000     0.720000000
C     2.808000000    -3.505000000     1.752000000
C     2.312000000    -2.769000000     2.809000000
H     1.475000000    -3.106000000     3.416000000
C     2.873000000    -1.521000000     3.107000000
O     2.292000000    -0.781000000     4.084000000
C     1.570000000     0.386000000     3.732000000
C     0.253000000     0.459000000     4.491000000
C    -0.520000000    -0.705000000     4.750000000
H    -0.149000000    -1.698000000     4.507000000
C    -0.391000000     1.697000000     4.736000000
H     0.258000000     2.544000000     4.528000000
O     2.333000000     1.560000000     3.883000000
H     1.169000000     0.270000000     2.714000000
C     3.931000000    -0.988000000     2.357000000
C     4.686000000     0.333000000     2.758000000
H     5.710000000     0.175000000     2.413000000
H     4.753000000     0.433000000     3.844000000
C     4.048000000     1.558000000     2.163000000
C     2.928000000     2.059000000     2.794000000
C     2.302000000     3.180000000     2.200000000
H     1.527000000     3.712000000     2.747000000
C     2.718000000     3.743000000     0.995000000
O     2.016000000     4.739000000     0.357000000
C     1.100000000     4.242000000    -0.617000000
H     1.110000000     3.153000000    -0.457000000
C    -0.324000000     4.829000000    -0.438000000
C    -1.314000000     4.524000000    -1.310000000
H    -1.024000000     3.973000000    -2.201000000
C    -0.644000000     5.428000000     0.798000000
H     0.082000000     5.537000000     1.599000000
C    -1.960000000     5.809000000     1.008000000
O    -2.283000000     6.423000000     2.289000000
C    -2.950000000     5.584000000    -0.026000000
H    -3.956000000     5.952000000     0.158000000
C    -2.583000000     5.036000000    -1.186000000
O    -3.583000000     4.818000000    -2.069000000
C    -3.314000000     4.537000000    -3.417000000
C    -3.699000000     3.241000000    -3.901000000
H    -3.990000000     2.373000000    -3.315000000
C    -2.874000000     5.510000000    -4.193000000
H    -2.679000000     6.516000000    -3.831000000
C    -2.718000000     5.282000000    -5.549000000
H    -2.135000000     5.985000000    -6.138000000
C    -3.093000000     4.016000000    -6.079000000
H    -2.962000000     3.801000000    -7.136000000
C    -3.538000000     3.011000000    -5.239000000
O    -3.765000000     1.772000000    -5.780000000
C    -3.114000000     0.687000000    -5.318000000
C    -3.806000000    -0.502000000    -5.302000000
H    -4.880000000    -0.560000000    -5.458000000
C    -3.147000000    -1.621000000    -4.886000000
O    -3.921000000    -2.763000000    -4.633000000
C    -3.484000000    -4.065000000    -4.212000000
C    -3.697000000    -4.441000000    -2.886000000
H    -4.255000000    -3.859000000    -2.158000000
C    -2.788000000    -4.843000000    -5.078000000
H    -2.510000000    -4.561000000    -6.090000000
C    -2.337000000    -6.101000000    -4.620000000
H    -1.729000000    -6.641000000    -5.342000000
C    -2.628000000    -6.548000000    -3.336000000
H    -2.286000000    -7.566000000    -3.167000000
C    -3.195000000    -5.676000000    -2.411000000
O    -3.369000000    -6.067000000    -1.101000000
C    -2.430000000    -5.705000000    -0.137000000
C    -2.759000000    -6.030000000     1.205000000
H    -3.602000000    -6.702000000     1.342000000
C    -1.904000000    -5.813000000     2.237000000
O    -2.259000000    -6.115000000     3.552000000
C    -1.997000000    -5.184000000     4.493000000
C    -2.472000000    -3.833000000     4.429000000
H    -3.082000000    -3.535000000     3.580000000
C    -1.178000000    -5.583000000     5.568000000
H    -0.558000000    -6.475000000     5.545000000
C    -0.885000000    -4.744000000     6.621000000
H    -0.228000000    -5.011000000     7.444000000
C    -1.302000000    -3.390000000     6.554000000
H    -1.048000000    -2.695000000     7.350000000
C    -2.113000000    -2.965000000     5.462000000
O    -2.695000000    -1.682000000     5.486000000
C    -1.860000000    -0.590000000     5.159000000
C    -2.423000000     0.604000000     5.528000000
H    -3.411000000     0.632000000     5.982000000
C    -1.672000000     1.759000000     5.252000000
O    -2.165000000     2.961000000     5.666000000
C    -1.803000000     4.209000000     5.209000000
C    -1.062000000     5.043000000     6.047000000
H    -0.677000000     4.724000000     7.013000000
C    -0.614000000     6.292000000     5.536000000
H    -0.052000000     7.035000000     6.098000000
C    -1.090000000     6.709000000     4.322000000
H    -0.827000000     7.675000000     3.898000000
C    -1.904000000     5.938000000     3.567000000
C    -2.155000000     4.583000000     3.928000000
H    -2.759000000     3.886000000     3.354000000
C    -2.358000000    -1.874000000     0.095000000
H    -3.126000000    -2.587000000    -0.193000000
C    -1.146000000    -1.808000000    -0.609000000
H    -0.866000000    -2.416000000    -1.466000000
C    -0.182000000    -0.828000000    -0.269000000
H     0.767000000    -0.897000000    -0.822000000
C    -0.405000000     0.099000000     0.718000000
H     0.299000000     0.861000000     1.041000000
C    -1.570000000    -0.068000000     1.459000000
H    -1.773000000     0.534000000     2.342000000
C    -2.584000000    -0.992000000     1.124000000
C    -3.742000000    -1.212000000     2.045000000
O    -4.261000000    -0.293000000     2.684000000
O    -4.631000000    -2.079000000     1.792000000
O    -8.239000000     0.170000000     3.521000000
H    -8.937000000    -0.484000000     3.464000000
H    -7.669000000    -0.024000000     2.777000000
O    -5.408000000     2.173000000    -0.690000000
H    -4.518000000     2.009000000    -0.377000000
H    -5.653000000     1.367000000    -1.145000000
O    -2.097000000    -0.616000000     8.483000000
H    -1.808000000    -1.084000000     7.700000000
H    -1.598000000     0.201000000     8.472000000
O    -2.771000000     1.235000000    -1.468000000
H    -2.129000000     0.734000000    -0.965000000
H    -3.273000000     0.573000000    -1.943000000
O    -8.766000000    -3.031000000    -1.244000000
H    -8.204000000    -3.744000000    -0.939000000
H    -9.097000000    -3.333000000    -2.090000000
O    -5.783000000    -1.323000000     4.771000000
H    -5.118000000    -1.281000000     4.084000000
H    -6.379000000    -0.602000000     4.572000000
O    -6.958000000     3.806000000     0.734000000
H    -6.411000000     3.092000000     0.408000000
H    -7.608000000     3.944000000     0.045000000
O    -6.655000000    -3.812000000     4.700000000
H    -6.165000000    -4.244000000     4.000000000
H    -6.406000000    -2.891000000     4.633000000
O    -6.742000000    -4.404000000     7.284000000
H    -6.827000000    -4.341000000     6.332000000
H    -5.984000000    -4.971000000     7.420000000
O    -6.896000000    -0.712000000     1.515000000
H    -7.029000000    -1.150000000     0.674000000
H    -6.002000000    -0.941000000     1.765000000
O    -6.773000000    -4.745000000    -0.808000000
H    -6.583000000    -4.988000000    -1.714000000
H    -6.826000000    -5.579000000    -0.342000000
O    -5.702000000    -2.053000000    -0.651000000
H    -5.278000000    -2.156000000     0.201000000
H    -6.049000000    -2.922000000    -0.853000000
O    -5.669000000     1.675000000     3.572000000
H    -6.497000000     1.284000000     3.294000000
H    -4.997000000     1.107000000     3.193000000
O    -4.995000000    -0.216000000    -2.337000000
H    -5.213000000    -0.975000000    -1.796000000
H    -5.624000000    -0.247000000    -3.058000000
O    -5.680000000    -4.358000000     2.229000000
H    -5.216000000    -3.557000000     1.986000000
H    -6.159000000    -4.606000000     1.438000000
O    -5.489000000    -1.732000000     7.349000000
H    -5.598000000    -1.763000000     6.399000000
H    -5.461000000    -2.650000000     7.618000000
O    -8.457000000    -3.123000000     1.456000000
H    -7.838000000    -2.527000000     1.878000000
H    -8.695000000    -2.683000000     0.640000000
O    -5.160000000     3.415000000     5.650000000
H    -4.285000000     3.106000000     5.417000000
H    -5.751000000     2.889000000     5.112000000
O    -8.398000000    -0.380000000    -2.119000000
H    -8.481000000    -1.172000000    -1.588000000
H    -7.737000000    -0.600000000    -2.775000000
