215
-1452.85713
C    -2.077000000    -2.039000000    -4.238000000
H    -1.461000000    -2.816000000    -3.794000000
C    -1.445000000    -0.841000000    -4.504000000
C    -2.241000000     0.265000000    -4.845000000
H    -1.733000000     1.225000000    -4.902000000
C     0.046000000    -0.660000000    -4.152000000
O     0.847000000    -1.776000000    -4.579000000
H     0.022000000    -0.637000000    -3.053000000
O     0.561000000     0.555000000    -4.747000000
C     1.445000000     1.160000000    -3.964000000
C     1.026000000     2.378000000    -3.427000000
H    -0.031000000     2.552000000    -3.610000000
C     1.853000000     3.230000000    -2.642000000
O     1.277000000     4.295000000    -2.094000000
C     3.125000000     2.837000000    -2.339000000
C     4.092000000     3.519000000    -1.366000000
H     5.109000000     3.181000000    -1.573000000
C     3.819000000     3.274000000     0.095000000
C     4.586000000     2.315000000     0.812000000
H     5.388000000     1.792000000     0.297000000
H     3.997000000     4.599000000    -1.499000000
C     3.600000000     1.698000000    -3.006000000
H     4.573000000     1.318000000    -2.703000000
C     2.783000000     0.793000000    -3.735000000
C     3.505000000    -0.466000000    -4.385000000
H     4.566000000    -0.216000000    -4.451000000
H     3.219000000    -0.452000000    -5.439000000
C     3.132000000    -1.682000000    -3.617000000
C     3.899000000    -2.055000000    -2.525000000
H     4.838000000    -1.561000000    -2.289000000
C     1.850000000    -2.308000000    -3.790000000
C     1.321000000    -3.222000000    -2.908000000
H     0.298000000    -3.589000000    -2.906000000
C     2.124000000    -3.600000000    -1.797000000
O     1.610000000    -4.494000000    -0.908000000
C     1.053000000    -4.109000000     0.361000000
C    -0.201000000    -4.926000000     0.755000000
C    -0.719000000    -4.885000000     2.022000000
H    -0.087000000    -4.384000000     2.751000000
C    -0.916000000    -5.671000000    -0.194000000
H    -0.468000000    -5.784000000    -1.178000000
O     2.096000000    -4.187000000     1.415000000
H     0.746000000    -3.055000000     0.287000000
C     3.451000000    -3.085000000    -1.639000000
C     4.269000000    -3.426000000    -0.432000000
H     5.323000000    -3.326000000    -0.700000000
H     4.291000000    -4.515000000    -0.355000000
C     3.886000000    -2.637000000     0.828000000
C     4.588000000    -1.436000000     1.140000000
H     5.359000000    -1.097000000     0.453000000
C     2.784000000    -3.011000000     1.638000000
C     2.433000000    -2.167000000     2.674000000
H     1.584000000    -2.430000000     3.300000000
C     3.141000000    -1.006000000     3.036000000
O     2.587000000    -0.289000000     4.092000000
C     1.855000000     0.889000000     3.777000000
C     0.571000000     0.965000000     4.504000000
C    -0.169000000    -0.206000000     4.739000000
H     0.265000000    -1.171000000     4.488000000
C     0.040000000     2.170000000     4.855000000
H     0.565000000     3.120000000     4.816000000
O     2.708000000     2.072000000     3.873000000
H     1.572000000     0.762000000     2.722000000
C     4.217000000    -0.668000000     2.302000000
C     4.922000000     0.633000000     2.642000000
H     5.947000000     0.702000000     2.271000000
H     4.918000000     0.702000000     3.732000000
C     4.237000000     1.911000000     2.102000000
C     3.261000000     2.637000000     2.795000000
C     2.490000000     3.533000000     2.118000000
H     1.679000000     4.036000000     2.639000000
C     2.767000000     3.854000000     0.800000000
O     1.873000000     4.682000000     0.161000000
C     0.874000000     4.104000000    -0.709000000
H     0.887000000     3.007000000    -0.625000000
C    -0.528000000     4.689000000    -0.456000000
C    -1.576000000     4.321000000    -1.255000000
H    -1.446000000     3.753000000    -2.173000000
C    -0.840000000     5.479000000     0.663000000
H    -0.057000000     5.756000000     1.364000000
C    -2.191000000     5.728000000     1.060000000
O    -2.430000000     6.498000000     2.161000000
C    -3.185000000     5.486000000     0.159000000
H    -4.194000000     5.847000000     0.339000000
C    -2.890000000     4.753000000    -0.991000000
O    -3.903000000     4.391000000    -1.832000000
C    -3.712000000     4.113000000    -3.126000000
C    -4.026000000     2.806000000    -3.567000000
H    -4.532000000     2.112000000    -2.901000000
C    -3.116000000     5.000000000    -4.014000000
H    -2.710000000     5.927000000    -3.620000000
C    -2.980000000     4.717000000    -5.385000000
H    -2.468000000     5.397000000    -6.061000000
C    -3.349000000     3.417000000    -5.829000000
H    -3.104000000     3.118000000    -6.845000000
C    -3.879000000     2.526000000    -4.911000000
O    -4.266000000     1.309000000    -5.348000000
C    -3.569000000     0.146000000    -5.036000000
C    -4.195000000    -1.081000000    -4.926000000
H    -5.281000000    -1.120000000    -4.969000000
C    -3.444000000    -2.223000000    -4.499000000
O    -4.056000000    -3.396000000    -4.133000000
C    -3.405000000    -4.598000000    -3.951000000
C    -3.268000000    -5.033000000    -2.631000000
H    -3.575000000    -4.325000000    -1.865000000
C    -3.334000000    -5.502000000    -5.020000000
H    -3.619000000    -5.335000000    -6.055000000
C    -2.840000000    -6.773000000    -4.693000000
H    -2.659000000    -7.438000000    -5.533000000
C    -2.584000000    -7.178000000    -3.386000000
H    -2.146000000    -8.159000000    -3.219000000
C    -2.832000000    -6.300000000    -2.307000000
O    -2.765000000    -6.813000000    -0.990000000
C    -2.133000000    -6.224000000     0.057000000
C    -2.691000000    -6.122000000     1.315000000
H    -3.664000000    -6.547000000     1.549000000
C    -1.933000000    -5.526000000     2.342000000
O    -2.448000000    -5.476000000     3.640000000
C    -1.845000000    -4.657000000     4.546000000
C    -2.215000000    -3.313000000     4.638000000
H    -2.951000000    -2.818000000     4.009000000
C    -0.773000000    -5.207000000     5.329000000
H    -0.400000000    -6.221000000     5.211000000
C    -0.167000000    -4.467000000     6.318000000
H     0.494000000    -4.963000000     7.023000000
C    -0.650000000    -3.199000000     6.520000000
H    -0.264000000    -2.557000000     7.308000000
C    -1.610000000    -2.589000000     5.666000000
O    -1.983000000    -1.302000000     5.943000000
C    -1.365000000    -0.153000000     5.458000000
C    -1.913000000     1.050000000     5.730000000
H    -2.814000000     1.082000000     6.338000000
C    -1.242000000     2.213000000     5.404000000
O    -1.823000000     3.432000000     5.605000000
C    -1.465000000     4.636000000     5.059000000
C    -0.690000000     5.586000000     5.676000000
H    -0.445000000     5.346000000     6.708000000
C    -0.468000000     6.872000000     5.169000000
H     0.107000000     7.608000000     5.726000000
C    -0.959000000     7.181000000     3.905000000
H    -0.725000000     8.107000000     3.386000000
C    -1.793000000     6.224000000     3.334000000
C    -1.957000000     4.957000000     3.845000000
H    -2.458000000     4.139000000     3.333000000
C    -1.895000000    -1.380000000     0.029000000
H    -2.443000000    -2.271000000    -0.266000000
C    -0.693000000    -1.058000000    -0.625000000
H    -0.331000000    -1.756000000    -1.375000000
C    -0.033000000     0.042000000    -0.132000000
H     0.891000000     0.376000000    -0.711000000
C    -0.576000000     0.849000000     0.918000000
H     0.007000000     1.685000000     1.295000000
C    -1.825000000     0.551000000     1.419000000
H    -2.220000000     1.144000000     2.240000000
C    -2.448000000    -0.645000000     1.075000000
C    -3.727000000    -1.066000000     1.778000000
O    -4.068000000    -0.389000000     2.728000000
O    -4.307000000    -2.033000000     1.456000000
O    -8.706000000     0.991000000     3.796000000
H    -9.184000000     0.169000000     3.902000000
H    -7.967000000     0.768000000     3.229000000
O    -9.262000000    -1.525000000     5.037000000
H    -9.851000000    -1.836000000     4.350000000
H    -8.535000000    -2.148000000     5.030000000
O    -5.021000000     2.527000000     0.371000000
H    -5.337000000     3.110000000    -0.320000000
H    -4.916000000     1.680000000    -0.061000000
O    -4.747000000    -0.143000000    -1.536000000
H    -3.930000000    -0.513000000    -1.202000000
H    -4.635000000    -0.134000000    -2.487000000
O    -4.596000000    -0.619000000     5.198000000
H    -3.784000000    -0.686000000     5.699000000
H    -4.311000000    -0.557000000     4.287000000
O    -8.036000000     3.416000000     2.696000000
H    -8.296000000     2.754000000     3.337000000
H    -8.406000000     3.107000000     1.869000000
O    -6.372000000    -2.912000000     5.291000000
H    -5.991000000    -3.282000000     4.494000000
H    -5.946000000    -2.061000000     5.387000000
O    -6.697000000     0.178000000     2.160000000
H    -6.890000000    -0.403000000     1.424000000
H    -5.770000000     0.029000000     2.347000000
O    -5.898000000    -5.134000000    -0.538000000
H    -5.479000000    -5.832000000    -1.042000000
H    -6.569000000    -5.581000000    -0.022000000
O    -6.339000000    -2.614000000     0.000000000
H    -5.582000000    -2.443000000     0.559000000
H    -6.234000000    -3.525000000    -0.274000000
O    -4.653000000     2.278000000     3.122000000
H    -4.923000000     2.412000000     2.213000000
H    -4.290000000     1.392000000     3.135000000
O    -6.694000000     0.476000000     6.570000000
H    -7.291000000     0.282000000     5.847000000
H    -6.007000000     1.013000000     6.175000000
O    -5.533000000     5.319000000     3.499000000
H    -4.978000000     4.785000000     2.930000000
H    -6.260000000     4.742000000     3.733000000
O   -10.191000000     0.727000000     0.356000000
H    -9.385000000     0.261000000     0.132000000
H   -10.814000000     0.466000000    -0.322000000
O    -8.329000000    -3.269000000     1.858000000
H    -7.875000000    -3.934000000     2.375000000
H    -7.685000000    -2.991000000     1.207000000
O    -7.959000000    -0.330000000    -0.441000000
H    -7.932000000     0.063000000    -1.313000000
H    -7.245000000    -0.968000000    -0.443000000
O    -5.277000000    -4.013000000     2.890000000
H    -4.962000000    -3.237000000     2.427000000
H    -4.708000000    -4.721000000     2.585000000
O    -4.684000000    -0.696000000     8.371000000
H    -5.435000000    -0.635000000     7.780000000
H    -5.011000000    -0.366000000     9.208000000
O    -5.090000000     2.904000000     5.565000000
H    -4.437000000     3.603000000     5.537000000
H    -5.075000000     2.526000000     4.686000000
