215
-1462.19663
C    -2.056000000    -1.001000000    -4.043000000
H    -1.588000000    -1.884000000    -3.616000000
C    -1.269000000     0.079000000    -4.462000000
C    -1.902000000     1.231000000    -5.042000000
H    -1.402000000     2.148000000    -5.344000000
C     0.196000000     0.142000000    -4.160000000
O     0.656000000    -1.206000000    -4.582000000
H     0.344000000     0.268000000    -3.078000000
O     0.781000000     1.224000000    -4.914000000
C     1.632000000     1.953000000    -4.172000000
C     1.226000000     3.120000000    -3.507000000
H     0.201000000     3.454000000    -3.646000000
C     1.972000000     3.767000000    -2.516000000
O     1.263000000     4.679000000    -1.710000000
C     3.209000000     3.228000000    -2.166000000
C     4.026000000     3.613000000    -0.909000000
H     5.094000000     3.438000000    -1.052000000
C     3.563000000     2.944000000     0.353000000
C     4.382000000     1.913000000     0.851000000
H     5.287000000     1.535000000     0.381000000
H     4.062000000     4.700000000    -0.810000000
C     3.652000000     2.027000000    -2.771000000
H     4.576000000     1.535000000    -2.479000000
C     2.867000000     1.442000000    -3.796000000
C     3.386000000     0.157000000    -4.439000000
H     4.476000000     0.222000000    -4.452000000
H     2.987000000     0.108000000    -5.454000000
C     2.926000000    -1.140000000    -3.631000000
C     3.780000000    -1.710000000    -2.679000000
H     4.743000000    -1.231000000    -2.517000000
C     1.712000000    -1.788000000    -3.898000000
C     1.347000000    -2.949000000    -3.203000000
H     0.464000000    -3.468000000    -3.567000000
C     2.183000000    -3.438000000    -2.213000000
O     1.683000000    -4.518000000    -1.512000000
C     1.275000000    -4.291000000    -0.114000000
C    -0.035000000    -5.026000000     0.278000000
C    -0.339000000    -5.320000000     1.586000000
H     0.386000000    -5.002000000     2.331000000
C    -1.013000000    -5.334000000    -0.699000000
H    -0.774000000    -5.016000000    -1.711000000
O     2.366000000    -4.532000000     0.787000000
H     1.053000000    -3.226000000     0.043000000
C     3.428000000    -2.843000000    -1.949000000
C     4.398000000    -3.351000000    -0.899000000
H     5.383000000    -3.037000000    -1.250000000
H     4.321000000    -4.440000000    -0.886000000
C     4.029000000    -2.710000000     0.444000000
C     4.678000000    -1.578000000     0.980000000
H     5.498000000    -1.099000000     0.451000000
C     2.997000000    -3.357000000     1.223000000
C     2.592000000    -2.839000000     2.446000000
H     1.737000000    -3.204000000     3.008000000
C     3.169000000    -1.656000000     2.848000000
O     2.600000000    -1.071000000     3.932000000
C     1.727000000     0.027000000     3.678000000
C     0.412000000     0.007000000     4.482000000
C    -0.103000000    -1.223000000     5.019000000
H     0.355000000    -2.185000000     4.802000000
C    -0.400000000     1.133000000     4.714000000
H    -0.141000000     2.051000000     4.192000000
O     2.498000000     1.221000000     3.952000000
H     1.419000000    -0.001000000     2.622000000
C     4.250000000    -1.085000000     2.211000000
C     4.889000000     0.224000000     2.724000000
H     5.940000000     0.305000000     2.440000000
H     4.908000000     0.241000000     3.815000000
C     4.091000000     1.389000000     2.141000000
C     2.996000000     1.891000000     2.803000000
C     2.234000000     2.933000000     2.384000000
H     1.361000000     3.142000000     2.997000000
C     2.510000000     3.428000000     1.124000000
O     1.671000000     4.395000000     0.613000000
C     0.763000000     4.120000000    -0.438000000
H     0.535000000     3.052000000    -0.572000000
C    -0.584000000     4.808000000    -0.122000000
C    -1.488000000     4.998000000    -1.161000000
H    -1.238000000     4.674000000    -2.168000000
C    -0.912000000     5.232000000     1.140000000
H    -0.304000000     4.998000000     2.009000000
C    -2.212000000     5.653000000     1.413000000
O    -2.703000000     5.910000000     2.705000000
C    -3.142000000     5.817000000     0.437000000
H    -4.107000000     6.289000000     0.603000000
C    -2.767000000     5.497000000    -0.884000000
O    -3.750000000     5.429000000    -1.886000000
C    -3.504000000     5.069000000    -3.187000000
C    -3.779000000     3.772000000    -3.621000000
H    -4.410000000     3.045000000    -3.118000000
C    -2.889000000     5.955000000    -4.026000000
H    -2.722000000     6.991000000    -3.746000000
C    -2.376000000     5.547000000    -5.287000000
H    -1.694000000     6.135000000    -5.896000000
C    -2.869000000     4.380000000    -5.842000000
H    -2.535000000     4.135000000    -6.847000000
C    -3.578000000     3.527000000    -5.008000000
O    -3.896000000     2.332000000    -5.556000000
C    -3.317000000     1.261000000    -5.053000000
C    -4.073000000     0.090000000    -4.784000000
H    -5.155000000     0.176000000    -4.723000000
C    -3.417000000    -0.990000000    -4.194000000
O    -4.207000000    -2.032000000    -3.731000000
C    -3.717000000    -3.348000000    -3.719000000
C    -3.669000000    -4.072000000    -2.563000000
H    -4.021000000    -3.650000000    -1.625000000
C    -3.314000000    -3.869000000    -4.909000000
H    -3.503000000    -3.348000000    -5.844000000
C    -3.061000000    -5.263000000    -4.856000000
H    -2.766000000    -5.758000000    -5.778000000
C    -3.007000000    -5.993000000    -3.652000000
H    -2.728000000    -7.043000000    -3.634000000
C    -3.197000000    -5.362000000    -2.474000000
O    -3.155000000    -6.101000000    -1.342000000
C    -2.306000000    -5.852000000    -0.318000000
C    -2.538000000    -6.199000000     0.979000000
H    -3.474000000    -6.561000000     1.396000000
C    -1.567000000    -5.891000000     1.914000000
O    -1.976000000    -6.083000000     3.215000000
C    -1.477000000    -5.559000000     4.347000000
C    -1.822000000    -4.240000000     4.663000000
H    -2.417000000    -3.691000000     3.938000000
C    -0.791000000    -6.345000000     5.302000000
H    -0.651000000    -7.405000000     5.107000000
C    -0.297000000    -5.775000000     6.485000000
H     0.176000000    -6.392000000     7.245000000
C    -0.607000000    -4.449000000     6.787000000
H    -0.284000000    -4.035000000     7.738000000
C    -1.412000000    -3.703000000     5.896000000
O    -1.760000000    -2.460000000     6.322000000
C    -1.316000000    -1.293000000     5.780000000
C    -2.037000000    -0.138000000     5.930000000
H    -3.000000000    -0.129000000     6.433000000
C    -1.553000000     1.068000000     5.430000000
O    -2.345000000     2.161000000     5.562000000
C    -1.970000000     3.391000000     5.183000000
C    -0.847000000     3.959000000     5.772000000
H    -0.252000000     3.488000000     6.550000000
C    -0.354000000     5.145000000     5.384000000
H     0.587000000     5.527000000     5.771000000
C    -1.076000000     5.891000000     4.448000000
H    -0.700000000     6.896000000     4.271000000
C    -2.209000000     5.376000000     3.861000000
C    -2.614000000     4.074000000     4.155000000
H    -3.448000000     3.623000000     3.623000000
C    -0.851000000    -1.390000000     0.581000000
H    -1.027000000    -2.453000000     0.445000000
C     0.330000000    -0.751000000     0.177000000
H     1.028000000    -1.306000000    -0.444000000
C     0.538000000     0.621000000     0.513000000
H     1.433000000     1.144000000     0.130000000
C    -0.465000000     1.284000000     1.201000000
H    -0.275000000     2.334000000     1.410000000
C    -1.610000000     0.662000000     1.706000000
H    -2.287000000     1.278000000     2.292000000
C    -1.865000000    -0.640000000     1.349000000
C    -3.083000000    -1.358000000     1.891000000
O    -3.857000000    -0.758000000     2.592000000
O    -3.332000000    -2.515000000     1.582000000
O    -8.632000000    -1.358000000     2.803000000
H    -8.523000000    -2.233000000     3.176000000
H    -7.752000000    -1.105000000     2.524000000
O    -5.106000000     1.890000000     0.678000000
H    -4.792000000     2.793000000     0.633000000
H    -4.988000000     1.552000000    -0.210000000
O    -3.150000000     0.881000000    -1.040000000
H    -2.207000000     0.767000000    -0.922000000
H    -3.535000000     0.543000000    -0.232000000
O    -5.371000000    -1.921000000     4.610000000
H    -4.658000000    -1.713000000     5.213000000
H    -5.132000000    -1.478000000     3.795000000
O    -7.533000000     2.893000000    -1.071000000
H    -7.104000000     2.038000000    -1.112000000
H    -8.394000000     2.710000000    -0.693000000
O    -4.399000000    -3.505000000     8.512000000
H    -4.545000000    -2.597000000     8.775000000
H    -4.478000000    -3.494000000     7.558000000
O    -7.247000000    -3.881000000     3.335000000
H    -6.755000000    -4.142000000     2.557000000
H    -6.619000000    -3.386000000     3.861000000
O    -6.254000000    -0.196000000     1.881000000
H    -6.126000000     0.604000000     1.371000000
H    -5.368000000    -0.494000000     2.086000000
O    -6.169000000    -4.575000000    -0.525000000
H    -7.117000000    -4.449000000    -0.472000000
H    -6.064000000    -5.499000000    -0.752000000
O    -4.999000000    -1.627000000    -0.450000000
H    -4.431000000    -1.783000000     0.305000000
H    -5.599000000    -2.373000000    -0.455000000
O    -5.492000000     2.089000000     4.043000000
H    -4.593000000     1.887000000     3.786000000
H    -6.034000000     1.557000000     3.460000000
O    -8.067000000    -0.536000000     6.396000000
H    -8.441000000    -1.398000000     6.209000000
H    -7.412000000    -0.407000000     5.711000000
O    -7.139000000    -2.764000000    -3.292000000
H    -7.569000000    -2.457000000    -2.494000000
H    -6.352000000    -2.223000000    -3.364000000
O    -6.411000000     4.645000000     4.222000000
H    -5.902000000     3.882000000     3.949000000
H    -7.207000000     4.278000000     4.606000000
O    -5.616000000     0.478000000    -2.032000000
H    -5.677000000    -0.272000000    -1.440000000
H    -4.779000000     0.361000000    -2.482000000
O    -4.858000000    -4.708000000     2.091000000
H    -4.277000000    -3.957000000     2.215000000
H    -4.946000000    -4.788000000     1.141000000
O    -4.793000000    -5.730000000     4.703000000
H    -4.535000000    -5.215000000     3.939000000
H    -5.749000000    -5.738000000     4.675000000
O    -5.248000000     1.066000000     7.053000000
H    -5.191000000     1.673000000     6.315000000
H    -5.566000000     1.601000000     7.779000000
O    -8.761000000    -1.280000000    -1.677000000
H    -8.328000000    -0.785000000    -0.982000000
H    -8.773000000    -0.684000000    -2.425000000
