215
-1452.33508
C    -1.955000000    -1.289000000    -4.034000000
H    -1.434000000    -2.163000000    -3.651000000
C    -1.201000000    -0.216000000    -4.473000000
C    -1.835000000     1.021000000    -4.868000000
H    -1.322000000     1.911000000    -5.225000000
C     0.345000000    -0.172000000    -4.320000000
O     1.031000000    -1.358000000    -4.796000000
H     0.543000000    -0.069000000    -3.243000000
O     0.993000000     0.972000000    -4.886000000
C     1.774000000     1.667000000    -4.033000000
C     1.256000000     2.752000000    -3.352000000
H     0.188000000     2.928000000    -3.455000000
C     2.060000000     3.495000000    -2.494000000
O     1.381000000     4.446000000    -1.829000000
C     3.338000000     3.019000000    -2.203000000
C     4.104000000     3.623000000    -1.037000000
H     5.170000000     3.386000000    -1.076000000
C     3.664000000     3.095000000     0.310000000
C     4.193000000     1.921000000     0.923000000
H     5.051000000     1.520000000     0.390000000
H     4.022000000     4.712000000    -1.000000000
C     3.852000000     1.894000000    -2.837000000
H     4.846000000     1.481000000    -2.682000000
C     3.053000000     1.175000000    -3.741000000
C     3.570000000    -0.085000000    -4.416000000
H     4.653000000    -0.010000000    -4.533000000
H     3.248000000    -0.299000000    -5.437000000
C     3.170000000    -1.332000000    -3.637000000
C     3.987000000    -1.764000000    -2.591000000
H     4.950000000    -1.289000000    -2.422000000
C     1.957000000    -1.919000000    -3.906000000
C     1.582000000    -2.976000000    -3.155000000
H     0.575000000    -3.294000000    -3.412000000
C     2.267000000    -3.363000000    -1.993000000
O     1.704000000    -4.331000000    -1.200000000
C     1.241000000    -4.172000000     0.159000000
C     0.015000000    -5.042000000     0.440000000
C    -0.455000000    -5.247000000     1.694000000
H     0.207000000    -4.990000000     2.518000000
C    -0.778000000    -5.521000000    -0.642000000
H    -0.450000000    -5.386000000    -1.669000000
O     2.290000000    -4.440000000     1.087000000
H     0.866000000    -3.151000000     0.320000000
C     3.507000000    -2.796000000    -1.760000000
C     4.389000000    -3.312000000    -0.665000000
H     5.437000000    -3.080000000    -0.865000000
H     4.359000000    -4.396000000    -0.535000000
C     3.970000000    -2.782000000     0.718000000
C     4.602000000    -1.587000000     1.191000000
H     5.340000000    -1.007000000     0.642000000
C     2.975000000    -3.359000000     1.449000000
C     2.456000000    -2.730000000     2.630000000
H     1.655000000    -3.164000000     3.223000000
C     3.109000000    -1.606000000     3.154000000
O     2.464000000    -0.946000000     4.208000000
C     1.521000000     0.103000000     3.835000000
C     0.286000000     0.095000000     4.577000000
C    -0.284000000    -1.115000000     5.039000000
H     0.215000000    -2.041000000     4.765000000
C    -0.446000000     1.243000000     4.767000000
H     0.041000000     2.136000000     4.383000000
O     2.214000000     1.394000000     3.932000000
H     1.252000000    -0.045000000     2.779000000
C     4.183000000    -1.028000000     2.451000000
C     4.698000000     0.313000000     2.793000000
H     5.763000000     0.400000000     2.569000000
H     4.616000000     0.318000000     3.881000000
C     3.863000000     1.395000000     2.156000000
C     2.799000000     1.943000000     2.785000000
C     2.123000000     3.043000000     2.219000000
H     1.250000000     3.495000000     2.683000000
C     2.520000000     3.640000000     1.010000000
O     1.846000000     4.620000000     0.482000000
C     0.905000000     4.249000000    -0.530000000
H     0.724000000     3.164000000    -0.502000000
C    -0.462000000     4.885000000    -0.270000000
C    -1.312000000     5.076000000    -1.332000000
H    -0.922000000     4.867000000    -2.325000000
C    -0.903000000     5.113000000     1.017000000
H    -0.206000000     4.910000000     1.827000000
C    -2.187000000     5.607000000     1.229000000
O    -2.646000000     5.937000000     2.470000000
C    -2.982000000     5.980000000     0.098000000
H    -3.965000000     6.409000000     0.278000000
C    -2.619000000     5.632000000    -1.186000000
O    -3.422000000     5.976000000    -2.266000000
C    -3.226000000     5.312000000    -3.516000000
C    -3.656000000     3.997000000    -3.695000000
H    -3.976000000     3.438000000    -2.819000000
C    -2.936000000     6.009000000    -4.694000000
H    -2.583000000     7.034000000    -4.619000000
C    -2.842000000     5.492000000    -5.956000000
H    -2.487000000     6.053000000    -6.817000000
C    -3.125000000     4.171000000    -6.050000000
H    -2.941000000     3.651000000    -6.987000000
C    -3.630000000     3.464000000    -4.968000000
O    -3.947000000     2.124000000    -5.155000000
C    -3.207000000     1.017000000    -4.799000000
C    -3.914000000    -0.145000000    -4.453000000
H    -4.997000000    -0.063000000    -4.411000000
C    -3.338000000    -1.264000000    -3.968000000
O    -4.126000000    -2.208000000    -3.421000000
C    -3.773000000    -3.605000000    -3.533000000
C    -3.503000000    -4.325000000    -2.407000000
H    -3.625000000    -3.847000000    -1.438000000
C    -3.680000000    -4.169000000    -4.832000000
H    -3.973000000    -3.589000000    -5.703000000
C    -3.351000000    -5.544000000    -4.913000000
H    -3.341000000    -6.058000000    -5.870000000
C    -3.000000000    -6.237000000    -3.728000000
H    -2.886000000    -7.317000000    -3.694000000
C    -3.127000000    -5.618000000    -2.495000000
O    -2.932000000    -6.402000000    -1.416000000
C    -2.106000000    -6.021000000    -0.376000000
C    -2.439000000    -6.274000000     0.934000000
H    -3.399000000    -6.732000000     1.157000000
C    -1.681000000    -5.814000000     1.972000000
O    -2.174000000    -5.970000000     3.232000000
C    -1.619000000    -5.305000000     4.326000000
C    -2.145000000    -4.145000000     4.730000000
H    -2.910000000    -3.725000000     4.082000000
C    -0.652000000    -5.980000000     5.022000000
H    -0.423000000    -6.979000000     4.659000000
C    -0.184000000    -5.427000000     6.184000000
H     0.492000000    -6.038000000     6.777000000
C    -0.595000000    -4.124000000     6.555000000
H    -0.160000000    -3.843000000     7.510000000
C    -1.580000000    -3.513000000     5.794000000
O    -2.086000000    -2.272000000     6.084000000
C    -1.452000000    -1.102000000     5.770000000
C    -2.181000000     0.085000000     5.889000000
H    -3.126000000    -0.002000000     6.419000000
C    -1.701000000     1.250000000     5.378000000
O    -2.393000000     2.392000000     5.740000000
C    -1.985000000     3.683000000     5.327000000
C    -0.966000000     4.351000000     6.015000000
H    -0.639000000     3.907000000     6.952000000
C    -0.480000000     5.534000000     5.514000000
H     0.176000000     6.175000000     6.097000000
C    -1.082000000     6.078000000     4.368000000
H    -0.939000000     7.145000000     4.214000000
C    -2.055000000     5.405000000     3.644000000
C    -2.475000000     4.159000000     4.144000000
H    -3.320000000     3.703000000     3.636000000
C    -1.214000000    -1.559000000     0.203000000
H    -1.432000000    -2.517000000    -0.263000000
C    -0.244000000    -0.794000000    -0.328000000
H     0.349000000    -1.172000000    -1.157000000
C     0.071000000     0.449000000     0.163000000
H     0.970000000     1.025000000    -0.188000000
C    -0.627000000     0.968000000     1.209000000
H    -0.449000000     1.936000000     1.670000000
C    -1.752000000     0.233000000     1.683000000
H    -2.431000000     0.697000000     2.393000000
C    -2.060000000    -0.975000000     1.195000000
C    -3.261000000    -1.751000000     1.603000000
O    -3.907000000    -1.396000000     2.559000000
O    -3.692000000    -2.623000000     0.920000000
O    -4.795000000    -8.273000000     3.536000000
H    -5.159000000    -8.197000000     2.654000000
H    -4.931000000    -7.410000000     3.926000000
O    -3.885000000     2.517000000     1.031000000
H    -4.216000000     3.288000000     0.570000000
H    -3.290000000     2.102000000     0.406000000
O    -2.991000000     0.788000000    -1.097000000
H    -2.103000000     0.443000000    -1.006000000
H    -3.558000000     0.028000000    -0.961000000
O    -4.811000000    -1.632000000     5.152000000
H    -3.896000000    -1.535000000     5.417000000
H    -4.894000000    -1.084000000     4.371000000
O    -5.320000000    -2.816000000     7.928000000
H    -6.253000000    -3.027000000     7.958000000
H    -5.187000000    -2.442000000     7.057000000
O    -7.599000000    -6.311000000     1.589000000
H    -7.198000000    -7.159000000     1.400000000
H    -6.859000000    -5.727000000     1.754000000
O    -6.489000000    -3.590000000     4.474000000
H    -6.330000000    -3.655000000     3.533000000
H    -5.872000000    -2.924000000     4.776000000
O    -6.501000000    -0.466000000     2.108000000
H    -5.686000000    -0.932000000     2.297000000
H    -6.384000000     0.393000000     2.513000000
O    -5.774000000    -5.896000000    -0.685000000
H    -5.878000000    -6.694000000    -1.203000000
H    -6.335000000    -5.253000000    -1.120000000
O    -6.344000000    -1.192000000    -0.569000000
H    -5.452000000    -1.539000000    -0.578000000
H    -6.460000000    -0.852000000     0.319000000
O    -4.657000000     1.133000000     3.296000000
H    -4.341000000     0.268000000     3.035000000
H    -4.386000000     1.712000000     2.584000000
O    -8.564000000    -4.383000000     5.947000000
H    -7.706000000    -4.049000000     5.685000000
H    -8.988000000    -4.628000000     5.124000000
O    -7.516000000    -3.330000000    -1.885000000
H    -7.344000000    -2.647000000    -1.238000000
H    -8.362000000    -3.092000000    -2.266000000
O    -7.304000000     1.660000000    -1.138000000
H    -8.057000000     1.073000000    -1.081000000
H    -6.662000000     1.176000000    -1.657000000
O    -6.501000000     3.990000000     0.115000000
H    -6.664000000     3.232000000    -0.445000000
H    -7.207000000     3.967000000     0.761000000
O    -5.448000000    -4.534000000     1.892000000
H    -4.965000000    -3.727000000     1.714000000
H    -5.484000000    -4.983000000     1.048000000
O    -5.284000000    -5.982000000     5.169000000
H    -5.648000000    -5.256000000     4.662000000
H    -6.051000000    -6.465000000     5.480000000
O    -6.399000000     1.825000000     5.349000000
H    -5.811000000     1.707000000     4.602000000
H    -5.878000000     2.309000000     5.989000000
O    -9.077000000    -1.003000000     1.667000000
H    -9.213000000    -0.485000000     0.873000000
H    -8.143000000    -0.914000000     1.854000000
