215
-1474.37297
C    -2.008000000    -1.145000000    -4.034000000
H    -1.494000000    -2.090000000    -3.879000000
C    -1.249000000     0.062000000    -4.112000000
C    -2.002000000     1.286000000    -4.307000000
H    -1.520000000     2.260000000    -4.346000000
C     0.293000000     0.059000000    -3.992000000
O     0.750000000    -1.181000000    -4.534000000
H     0.564000000     0.137000000    -2.929000000
O     0.829000000     1.246000000    -4.676000000
C     1.887000000     1.840000000    -4.071000000
C     1.580000000     3.010000000    -3.469000000
H     0.616000000     3.454000000    -3.702000000
C     2.431000000     3.553000000    -2.509000000
O     1.982000000     4.630000000    -1.802000000
C     3.611000000     2.874000000    -2.120000000
C     4.489000000     3.522000000    -0.966000000
H     5.527000000     3.207000000    -1.094000000
C     3.969000000     2.903000000     0.363000000
C     4.615000000     1.746000000     0.925000000
H     5.320000000     1.166000000     0.335000000
H     4.637000000     4.603000000    -0.914000000
C     3.996000000     1.721000000    -2.840000000
H     4.894000000     1.180000000    -2.551000000
C     3.140000000     1.138000000    -3.739000000
C     3.508000000    -0.260000000    -4.394000000
H     4.595000000    -0.323000000    -4.485000000
H     3.151000000    -0.481000000    -5.403000000
C     2.899000000    -1.373000000    -3.495000000
C     3.671000000    -2.030000000    -2.569000000
H     4.688000000    -1.687000000    -2.396000000
C     1.611000000    -1.855000000    -3.700000000
C     1.093000000    -2.865000000    -2.921000000
H     0.090000000    -3.236000000    -3.119000000
C     1.890000000    -3.531000000    -1.963000000
O     1.275000000    -4.512000000    -1.200000000
C     0.847000000    -4.205000000     0.138000000
C    -0.528000000    -4.889000000     0.404000000
C    -0.916000000    -5.191000000     1.685000000
H    -0.292000000    -4.846000000     2.505000000
C    -1.352000000    -5.314000000    -0.622000000
H    -1.069000000    -5.118000000    -1.653000000
O     1.853000000    -4.576000000     1.130000000
H     0.696000000    -3.118000000     0.217000000
C     3.213000000    -3.128000000    -1.842000000
C     4.062000000    -3.679000000    -0.771000000
H     5.144000000    -3.608000000    -0.900000000
H     3.915000000    -4.757000000    -0.682000000
C     3.691000000    -3.017000000     0.594000000
C     4.454000000    -1.903000000     0.985000000
H     5.206000000    -1.539000000     0.290000000
C     2.748000000    -3.530000000     1.452000000
C     2.456000000    -2.921000000     2.663000000
H     1.663000000    -3.364000000     3.260000000
C     3.184000000    -1.779000000     2.989000000
O     2.768000000    -1.104000000     4.118000000
C     1.966000000     0.082000000     3.821000000
C     0.729000000     0.154000000     4.669000000
C    -0.156000000    -0.959000000     4.706000000
H     0.151000000    -1.880000000     4.218000000
C     0.091000000     1.315000000     5.137000000
H     0.656000000     2.242000000     5.188000000
O     2.760000000     1.314000000     4.031000000
H     1.632000000     0.084000000     2.773000000
C     4.151000000    -1.270000000     2.198000000
C     4.922000000    -0.006000000     2.618000000
H     5.904000000    -0.032000000     2.141000000
H     5.114000000    -0.051000000     3.692000000
C     4.219000000     1.256000000     2.185000000
C     3.245000000     1.917000000     2.896000000
C     2.716000000     3.075000000     2.425000000
H     1.929000000     3.554000000     3.001000000
C     2.975000000     3.531000000     1.125000000
O     2.211000000     4.552000000     0.636000000
C     1.338000000     4.212000000    -0.526000000
H     1.217000000     3.125000000    -0.411000000
C    -0.003000000     4.930000000    -0.400000000
C    -0.669000000     5.573000000    -1.434000000
H    -0.218000000     5.560000000    -2.423000000
C    -0.686000000     4.845000000     0.815000000
H    -0.269000000     4.238000000     1.614000000
C    -2.006000000     5.306000000     1.025000000
O    -2.637000000     4.904000000     2.226000000
C    -2.613000000     5.974000000    -0.051000000
H    -3.658000000     6.230000000     0.110000000
C    -1.995000000     6.115000000    -1.283000000
O    -2.649000000     6.535000000    -2.368000000
C    -2.851000000     5.659000000    -3.457000000
C    -3.283000000     4.374000000    -3.237000000
H    -3.372000000     3.926000000    -2.250000000
C    -2.986000000     6.252000000    -4.708000000
H    -2.888000000     7.333000000    -4.763000000
C    -3.470000000     5.537000000    -5.792000000
H    -3.436000000     6.027000000    -6.762000000
C    -3.841000000     4.194000000    -5.613000000
H    -4.260000000     3.632000000    -6.443000000
C    -3.726000000     3.668000000    -4.352000000
O    -4.188000000     2.399000000    -4.264000000
C    -3.399000000     1.260000000    -4.378000000
C    -4.069000000     0.085000000    -4.391000000
H    -5.146000000    -0.017000000    -4.493000000
C    -3.414000000    -1.119000000    -4.136000000
O    -4.206000000    -2.295000000    -4.185000000
C    -3.675000000    -3.558000000    -4.036000000
C    -3.726000000    -4.128000000    -2.689000000
H    -4.154000000    -3.486000000    -1.924000000
C    -3.320000000    -4.311000000    -5.095000000
H    -3.275000000    -3.852000000    -6.079000000
C    -2.956000000    -5.654000000    -4.843000000
H    -2.686000000    -6.332000000    -5.649000000
C    -3.007000000    -6.236000000    -3.597000000
H    -2.936000000    -7.321000000    -3.585000000
C    -3.436000000    -5.447000000    -2.520000000
O    -3.564000000    -6.103000000    -1.337000000
C    -2.595000000    -5.962000000    -0.380000000
C    -2.948000000    -6.301000000     0.887000000
H    -3.899000000    -6.751000000     1.160000000
C    -2.081000000    -5.982000000     1.949000000
O    -2.450000000    -6.313000000     3.239000000
C    -2.057000000    -5.549000000     4.344000000
C    -2.254000000    -4.192000000     4.351000000
H    -2.795000000    -3.666000000     3.568000000
C    -1.354000000    -6.154000000     5.312000000
H    -1.159000000    -7.223000000     5.282000000
C    -0.889000000    -5.466000000     6.433000000
H    -0.270000000    -5.965000000     7.174000000
C    -1.116000000    -4.101000000     6.511000000
H    -0.726000000    -3.530000000     7.350000000
C    -1.838000000    -3.446000000     5.471000000
O    -2.207000000    -2.089000000     5.556000000
C    -1.410000000    -0.951000000     5.377000000
C    -1.910000000     0.230000000     5.893000000
H    -2.904000000     0.352000000     6.317000000
C    -1.109000000     1.356000000     5.779000000
O    -1.659000000     2.570000000     6.218000000
C    -1.463000000     3.711000000     5.443000000
C    -0.576000000     4.757000000     5.776000000
H    -0.197000000     4.896000000     6.785000000
C    -0.633000000     5.926000000     5.019000000
H    -0.326000000     6.869000000     5.462000000
C    -1.255000000     6.024000000     3.823000000
H    -1.177000000     6.935000000     3.235000000
C    -2.004000000     4.903000000     3.412000000
C    -2.135000000     3.778000000     4.236000000
H    -2.777000000     2.955000000     3.933000000
C    -1.646000000    -1.298000000     0.232000000
H    -2.136000000    -1.991000000    -0.447000000
C    -0.365000000    -0.793000000    -0.008000000
H     0.069000000    -1.162000000    -0.933000000
C     0.189000000     0.285000000     0.686000000
H     1.163000000     0.669000000     0.346000000
C    -0.627000000     0.930000000     1.600000000
H    -0.206000000     1.831000000     2.040000000
C    -1.863000000     0.379000000     1.971000000
H    -2.547000000     1.010000000     2.533000000
C    -2.388000000    -0.747000000     1.301000000
C    -3.796000000    -1.246000000     1.593000000
O    -4.404000000    -0.810000000     2.531000000
O    -4.223000000    -2.204000000     0.994000000
O    -8.405000000    -3.021000000     1.601000000
H    -7.776000000    -2.335000000     1.826000000
H    -9.261000000    -2.607000000     1.712000000
O    -4.494000000     2.908000000     1.547000000
H    -4.104000000     3.771000000     1.684000000
H    -3.987000000     2.526000000     0.831000000
O    -3.264000000     1.813000000    -0.692000000
H    -2.589000000     1.142000000    -0.598000000
H    -3.890000000     1.439000000    -1.312000000
O    -5.202000000    -2.403000000     4.815000000
H    -4.554000000    -2.262000000     5.505000000
H    -4.974000000    -1.766000000     4.138000000
O    -7.325000000    -6.831000000     2.250000000
H    -7.719000000    -6.233000000     2.885000000
H    -6.695000000    -6.291000000     1.771000000
O    -6.801000000     3.858000000     4.183000000
H    -6.189000000     4.565000000     4.387000000
H    -6.242000000     3.104000000     3.997000000
O    -5.378000000    -4.860000000     3.865000000
H    -5.359000000    -3.916000000     4.024000000
H    -5.176000000    -4.949000000     2.934000000
O    -5.334000000    -0.240000000     7.099000000
H    -6.039000000    -0.386000000     7.729000000
H    -5.621000000     0.519000000     6.590000000
O    -7.508000000    -1.743000000     5.773000000
H    -7.214000000    -0.876000000     6.050000000
H    -6.732000000    -2.147000000     5.387000000
O    -6.186000000    -1.722000000    -0.614000000
H    -5.396000000    -2.127000000    -0.256000000
H    -6.586000000    -1.276000000     0.132000000
O    -6.531000000    -5.989000000    -1.284000000
H    -6.103000000    -5.404000000    -0.658000000
H    -7.297000000    -5.499000000    -1.583000000
O    -8.696000000    -2.555000000    -1.598000000
H    -9.103000000    -2.667000000    -0.739000000
H    -7.792000000    -2.307000000    -1.404000000
O    -5.229000000     1.502000000     3.620000000
H    -4.859000000     0.626000000     3.509000000
H    -4.972000000     1.972000000     2.826000000
O    -8.517000000    -4.957000000     4.050000000
H    -7.588000000    -4.737000000     4.121000000
H    -8.933000000    -4.145000000     3.759000000
O    -9.225000000    -0.218000000     3.462000000
H    -8.429000000    -0.287000000     3.990000000
H    -9.192000000     0.665000000     3.094000000
O    -5.903000000    -4.424000000     0.817000000
H    -5.174000000    -3.873000000     1.105000000
H    -6.668000000    -3.851000000     0.863000000
O    -7.454000000     2.234000000     1.094000000
H    -7.698000000     3.082000000     0.723000000
H    -6.499000000     2.213000000     1.038000000
O    -7.157000000     1.326000000     5.440000000
H    -6.442000000     1.312000000     4.804000000
H    -7.230000000     2.245000000     5.698000000
O    -6.898000000    -0.653000000     1.785000000
H    -6.991000000     0.298000000     1.732000000
H    -6.001000000    -0.790000000     2.089000000
