215
-1453.82978
C    -2.375000000    -1.204000000    -3.857000000
H    -1.803000000    -2.108000000    -3.661000000
C    -1.644000000    -0.035000000    -4.145000000
C    -2.314000000     1.130000000    -4.332000000
H    -1.759000000     2.050000000    -4.498000000
C    -0.164000000    -0.064000000    -4.024000000
O     0.387000000    -1.357000000    -4.560000000
H     0.057000000     0.003000000    -2.949000000
O     0.410000000     1.052000000    -4.709000000
C     1.390000000     1.733000000    -4.007000000
C     1.063000000     3.035000000    -3.446000000
H     0.062000000     3.436000000    -3.581000000
C     1.959000000     3.662000000    -2.647000000
O     1.450000000     4.740000000    -1.804000000
C     3.181000000     2.946000000    -2.405000000
C     4.153000000     3.531000000    -1.411000000
H     5.157000000     3.204000000    -1.688000000
C     3.853000000     3.019000000    -0.022000000
C     4.554000000     1.871000000     0.362000000
H     5.335000000     1.419000000    -0.244000000
H     4.209000000     4.617000000    -1.511000000
C     3.555000000     1.769000000    -3.088000000
H     4.530000000     1.305000000    -2.958000000
C     2.586000000     1.128000000    -3.844000000
C     2.976000000    -0.194000000    -4.530000000
H     4.059000000    -0.151000000    -4.663000000
H     2.402000000    -0.300000000    -5.453000000
C     2.670000000    -1.396000000    -3.648000000
C     3.623000000    -2.071000000    -2.885000000
H     4.638000000    -1.687000000    -2.810000000
C     1.374000000    -1.937000000    -3.722000000
C     1.118000000    -3.120000000    -2.990000000
H     0.104000000    -3.512000000    -3.013000000
C     2.067000000    -3.730000000    -2.213000000
O     1.721000000    -4.840000000    -1.454000000
C     1.241000000    -4.675000000    -0.128000000
C    -0.013000000    -5.590000000     0.167000000
C    -0.356000000    -5.986000000     1.474000000
H     0.259000000    -5.822000000     2.356000000
C    -0.897000000    -5.780000000    -0.850000000
H    -0.698000000    -5.420000000    -1.856000000
O     2.345000000    -4.809000000     0.789000000
H     0.877000000    -3.640000000    -0.051000000
C     3.344000000    -3.160000000    -2.059000000
C     4.343000000    -3.763000000    -1.087000000
H     5.299000000    -3.472000000    -1.529000000
H     4.194000000    -4.836000000    -0.949000000
C     4.124000000    -3.160000000     0.342000000
C     4.777000000    -1.922000000     0.651000000
H     5.472000000    -1.557000000    -0.100000000
C     3.070000000    -3.684000000     1.116000000
C     2.763000000    -3.017000000     2.300000000
H     1.872000000    -3.370000000     2.812000000
C     3.463000000    -1.773000000     2.604000000
O     2.940000000    -1.056000000     3.646000000
C     2.202000000     0.091000000     3.440000000
C     0.889000000     0.205000000     4.248000000
C    -0.024000000    -0.818000000     3.973000000
H     0.319000000    -1.745000000     3.521000000
C     0.504000000     1.410000000     4.925000000
H     1.149000000     2.285000000     4.938000000
O     3.073000000     1.223000000     3.528000000
H     1.890000000    -0.116000000     2.405000000
C     4.446000000    -1.290000000     1.788000000
C     5.033000000     0.048000000     2.033000000
H     5.964000000    -0.052000000     1.471000000
H     5.372000000     0.110000000     3.069000000
C     4.187000000     1.214000000     1.516000000
C     3.277000000     1.761000000     2.347000000
C     2.632000000     2.978000000     2.103000000
H     1.912000000     3.417000000     2.789000000
C     2.883000000     3.543000000     0.863000000
O     2.078000000     4.572000000     0.454000000
C     1.012000000     4.348000000    -0.483000000
H     0.840000000     3.274000000    -0.642000000
C    -0.272000000     4.991000000     0.025000000
C    -1.317000000     4.968000000    -0.836000000
H    -1.336000000     4.631000000    -1.869000000
C    -0.365000000     5.427000000     1.402000000
H     0.451000000     5.517000000     2.115000000
C    -1.591000000     5.801000000     1.796000000
O    -1.690000000     6.434000000     3.049000000
C    -2.678000000     5.929000000     0.993000000
H    -3.655000000     6.195000000     1.389000000
C    -2.584000000     5.482000000    -0.292000000
O    -3.720000000     5.595000000    -1.127000000
C    -3.693000000     5.183000000    -2.414000000
C    -4.034000000     3.872000000    -2.739000000
H    -4.434000000     3.180000000    -2.002000000
C    -3.101000000     6.048000000    -3.331000000
H    -2.798000000     7.047000000    -3.027000000
C    -3.088000000     5.672000000    -4.651000000
H    -2.895000000     6.397000000    -5.438000000
C    -3.414000000     4.413000000    -5.021000000
H    -3.330000000     4.065000000    -6.048000000
C    -3.923000000     3.500000000    -4.036000000
O    -4.390000000     2.278000000    -4.458000000
C    -3.701000000     1.136000000    -4.145000000
C    -4.422000000     0.036000000    -3.780000000
H    -5.487000000     0.130000000    -3.585000000
C    -3.779000000    -1.173000000    -3.675000000
O    -4.412000000    -2.251000000    -3.121000000
C    -3.949000000    -3.482000000    -3.394000000
C    -3.637000000    -4.310000000    -2.307000000
H    -3.758000000    -4.019000000    -1.267000000
C    -3.912000000    -3.906000000    -4.731000000
H    -4.224000000    -3.275000000    -5.560000000
C    -3.674000000    -5.272000000    -4.976000000
H    -3.773000000    -5.602000000    -6.007000000
C    -3.501000000    -6.159000000    -3.933000000
H    -3.254000000    -7.193000000    -4.161000000
C    -3.347000000    -5.639000000    -2.623000000
O    -3.065000000    -6.576000000    -1.660000000
C    -2.181000000    -6.313000000    -0.626000000
C    -2.593000000    -6.602000000     0.627000000
H    -3.566000000    -7.044000000     0.826000000
C    -1.624000000    -6.536000000     1.688000000
O    -2.071000000    -6.563000000     2.969000000
C    -1.728000000    -5.524000000     3.881000000
C    -2.096000000    -4.152000000     3.715000000
H    -2.775000000    -3.896000000     2.905000000
C    -0.859000000    -5.937000000     4.950000000
H    -0.554000000    -6.972000000     5.081000000
C    -0.501000000    -4.919000000     5.901000000
H    -0.013000000    -5.171000000     6.839000000
C    -0.890000000    -3.579000000     5.665000000
H    -0.520000000    -2.868000000     6.399000000
C    -1.607000000    -3.197000000     4.562000000
O    -2.057000000    -1.834000000     4.549000000
C    -1.230000000    -0.770000000     4.562000000
C    -1.665000000     0.343000000     5.242000000
H    -2.612000000     0.390000000     5.773000000
C    -0.822000000     1.471000000     5.453000000
O    -1.409000000     2.558000000     6.084000000
C    -1.148000000     3.923000000     5.757000000
C    -0.607000000     4.726000000     6.736000000
H    -0.331000000     4.245000000     7.671000000
C    -0.570000000     6.125000000     6.483000000
H    -0.225000000     6.855000000     7.210000000
C    -0.917000000     6.616000000     5.295000000
H    -0.885000000     7.683000000     5.088000000
C    -1.310000000     5.807000000     4.245000000
C    -1.518000000     4.431000000     4.516000000
H    -1.990000000     3.758000000     3.805000000
C    -0.982000000    -1.317000000     0.035000000
H    -1.311000000    -2.286000000    -0.331000000
C     0.239000000    -0.796000000    -0.355000000
H     0.950000000    -1.359000000    -0.953000000
C     0.638000000     0.394000000     0.130000000
H     1.647000000     0.677000000    -0.130000000
C    -0.260000000     1.185000000     0.909000000
H     0.189000000     2.092000000     1.305000000
C    -1.448000000     0.647000000     1.374000000
H    -2.131000000     1.232000000     1.986000000
C    -1.871000000    -0.602000000     0.919000000
C    -3.163000000    -1.271000000     1.406000000
O    -4.022000000    -0.536000000     1.791000000
O    -3.432000000    -2.416000000     1.150000000
O    -8.092000000    -3.482000000     2.018000000
H    -8.021000000    -3.325000000     1.077000000
H    -7.191000000    -3.436000000     2.338000000
O    -8.705000000    -0.862000000     2.086000000
H    -8.979000000    -1.672000000     2.516000000
H    -8.139000000    -1.150000000     1.370000000
O    -7.365000000     1.418000000    -0.327000000
H    -6.418000000     1.508000000    -0.220000000
H    -7.702000000     1.359000000     0.566000000
O    -4.617000000     1.317000000    -0.195000000
H    -3.897000000     1.947000000    -0.163000000
H    -4.305000000     0.570000000     0.315000000
O    -4.422000000     3.695000000     3.277000000
H    -4.677000000     3.887000000     4.180000000
H    -5.011000000     4.229000000     2.744000000
O    -4.766000000    -2.263000000     4.387000000
H    -3.883000000    -2.221000000     4.755000000
H    -4.631000000    -2.248000000     3.439000000
O    -5.890000000    -5.178000000     4.585000000
H    -6.444000000    -4.425000000     4.793000000
H    -5.474000000    -4.947000000     3.755000000
O    -4.399000000    -1.972000000     7.820000000
H    -5.059000000    -2.629000000     7.601000000
H    -4.782000000    -1.143000000     7.534000000
O    -7.510000000    -2.141000000     5.465000000
H    -7.451000000    -2.676000000     6.256000000
H    -6.602000000    -1.914000000     5.261000000
O    -6.351000000    -3.485000000    -1.079000000
H    -5.498000000    -3.423000000    -1.509000000
H    -6.367000000    -2.745000000    -0.471000000
O    -6.722000000    -5.987000000    -0.171000000
H    -6.676000000    -5.076000000    -0.462000000
H    -7.628000000    -6.101000000     0.116000000
O    -4.855000000     0.916000000     3.890000000
H    -4.360000000     0.451000000     3.215000000
H    -4.642000000     1.839000000     3.751000000
O    -8.917000000    -3.545000000    -2.267000000
H    -9.407000000    -3.477000000    -1.448000000
H    -8.001000000    -3.445000000    -2.007000000
O    -8.116000000     0.600000000     5.383000000
H    -7.952000000    -0.269000000     5.017000000
H    -7.310000000     0.820000000     5.850000000
O    -5.110000000    -4.303000000     1.795000000
H    -4.695000000    -3.498000000     1.486000000
H    -4.859000000    -4.964000000     1.151000000
O    -6.223000000    -7.958000000     2.088000000
H    -6.387000000    -7.042000000     1.866000000
H    -5.994000000    -8.370000000     1.255000000
O    -7.251000000     1.271000000     2.390000000
H    -6.741000000     1.222000000     3.199000000
H    -7.801000000     0.487000000     2.406000000
O    -5.663000000     0.527000000     6.636000000
H    -5.155000000     1.151000000     7.153000000
H    -5.384000000     0.681000000     5.733000000
O    -6.398000000    -1.246000000     0.686000000
H    -6.370000000    -0.507000000     0.079000000
H    -5.639000000    -1.118000000     1.255000000
