215
-1448.22596
C    -2.155000000    -1.256000000    -4.029000000
H    -1.653000000    -2.220000000    -4.016000000
C    -1.380000000    -0.056000000    -4.107000000
C    -2.060000000     1.104000000    -4.196000000
H    -1.569000000     2.071000000    -4.116000000
C     0.156000000    -0.107000000    -4.034000000
O     0.711000000    -1.321000000    -4.462000000
H     0.489000000    -0.044000000    -2.987000000
O     0.845000000     0.958000000    -4.776000000
C     1.789000000     1.593000000    -4.019000000
C     1.305000000     2.682000000    -3.273000000
H     0.307000000     3.086000000    -3.423000000
C     2.146000000     3.330000000    -2.358000000
O     1.533000000     4.338000000    -1.638000000
C     3.467000000     2.863000000    -2.125000000
C     4.331000000     3.401000000    -1.018000000
H     5.408000000     3.310000000    -1.168000000
C     3.892000000     2.803000000     0.280000000
C     4.498000000     1.618000000     0.640000000
H     5.393000000     1.277000000     0.128000000
H     4.237000000     4.489000000    -1.000000000
C     3.872000000     1.742000000    -2.876000000
H     4.826000000     1.256000000    -2.684000000
C     3.051000000     1.062000000    -3.805000000
C     3.503000000    -0.270000000    -4.405000000
H     4.566000000    -0.288000000    -4.653000000
H     3.066000000    -0.232000000    -5.405000000
C     2.954000000    -1.505000000    -3.529000000
C     3.767000000    -2.055000000    -2.588000000
H     4.760000000    -1.634000000    -2.451000000
C     1.673000000    -1.991000000    -3.716000000
C     1.205000000    -3.081000000    -3.025000000
H     0.188000000    -3.463000000    -3.067000000
C     2.106000000    -3.674000000    -2.131000000
O     1.623000000    -4.763000000    -1.402000000
C     1.096000000    -4.460000000    -0.085000000
C    -0.206000000    -5.226000000     0.183000000
C    -0.680000000    -5.384000000     1.503000000
H    -0.077000000    -5.044000000     2.342000000
C    -0.970000000    -5.664000000    -0.857000000
H    -0.547000000    -5.744000000    -1.855000000
O     2.089000000    -4.746000000     0.955000000
H     0.845000000    -3.391000000    -0.017000000
C     3.382000000    -3.124000000    -1.856000000
C     4.305000000    -3.788000000    -0.827000000
H     5.317000000    -3.457000000    -1.065000000
H     4.359000000    -4.878000000    -0.872000000
C     3.935000000    -3.212000000     0.555000000
C     4.579000000    -2.039000000     0.958000000
H     5.295000000    -1.663000000     0.232000000
C     2.895000000    -3.699000000     1.390000000
C     2.452000000    -2.965000000     2.469000000
H     1.578000000    -3.264000000     3.041000000
C     3.087000000    -1.816000000     2.883000000
O     2.491000000    -1.169000000     3.949000000
C     1.940000000     0.115000000     3.684000000
C     0.564000000     0.233000000     4.356000000
C    -0.189000000    -0.898000000     4.524000000
H     0.080000000    -1.852000000     4.078000000
C     0.047000000     1.508000000     4.653000000
H     0.560000000     2.438000000     4.423000000
O     2.832000000     1.169000000     3.930000000
H     1.746000000     0.233000000     2.608000000
C     4.219000000    -1.354000000     2.103000000
C     5.050000000    -0.085000000     2.534000000
H     6.086000000    -0.005000000     2.197000000
H     5.082000000    -0.092000000     3.625000000
C     4.319000000     1.154000000     1.982000000
C     3.311000000     1.768000000     2.773000000
C     2.549000000     2.879000000     2.362000000
H     1.826000000     3.308000000     3.051000000
C     2.875000000     3.359000000     1.089000000
O     2.062000000     4.372000000     0.643000000
C     1.038000000     4.111000000    -0.368000000
H     0.739000000     3.065000000    -0.208000000
C    -0.238000000     4.953000000    -0.060000000
C    -1.170000000     5.145000000    -1.073000000
H    -0.897000000     4.801000000    -2.067000000
C    -0.607000000     5.340000000     1.217000000
H     0.024000000     5.180000000     2.088000000
C    -1.796000000     6.037000000     1.482000000
O    -2.190000000     6.431000000     2.737000000
C    -2.666000000     6.333000000     0.467000000
H    -3.571000000     6.910000000     0.640000000
C    -2.355000000     5.918000000    -0.821000000
O    -3.210000000     6.334000000    -1.820000000
C    -3.407000000     5.594000000    -2.961000000
C    -3.764000000     4.271000000    -2.943000000
H    -3.999000000     3.817000000    -1.984000000
C    -3.347000000     6.371000000    -4.135000000
H    -3.167000000     7.431000000    -3.972000000
C    -3.485000000     5.742000000    -5.336000000
H    -3.456000000     6.277000000    -6.282000000
C    -3.746000000     4.310000000    -5.343000000
H    -3.835000000     3.782000000    -6.289000000
C    -3.958000000     3.583000000    -4.119000000
O    -4.295000000     2.275000000    -4.171000000
C    -3.472000000     1.085000000    -4.272000000
C    -4.183000000    -0.136000000    -4.150000000
H    -5.257000000    -0.095000000    -3.990000000
C    -3.524000000    -1.275000000    -4.029000000
O    -4.163000000    -2.454000000    -3.695000000
C    -3.607000000    -3.725000000    -3.902000000
C    -3.536000000    -4.587000000    -2.790000000
H    -3.856000000    -4.277000000    -1.798000000
C    -3.299000000    -4.225000000    -5.140000000
H    -3.388000000    -3.669000000    -6.070000000
C    -2.986000000    -5.596000000    -5.288000000
H    -3.007000000    -6.009000000    -6.293000000
C    -2.854000000    -6.408000000    -4.171000000
H    -2.577000000    -7.449000000    -4.320000000
C    -3.061000000    -5.884000000    -2.889000000
O    -2.918000000    -6.698000000    -1.802000000
C    -2.218000000    -6.270000000    -0.669000000
C    -2.701000000    -6.420000000     0.663000000
H    -3.616000000    -6.914000000     0.978000000
C    -1.958000000    -5.949000000     1.725000000
O    -2.476000000    -6.035000000     3.052000000
C    -2.048000000    -5.231000000     4.082000000
C    -2.472000000    -3.964000000     4.183000000
H    -2.999000000    -3.520000000     3.342000000
C    -1.391000000    -5.844000000     5.081000000
H    -1.157000000    -6.904000000     5.036000000
C    -0.872000000    -5.088000000     6.137000000
H    -0.257000000    -5.653000000     6.833000000
C    -1.025000000    -3.654000000     6.164000000
H    -0.588000000    -3.114000000     7.000000000
C    -1.963000000    -3.164000000     5.232000000
O    -2.288000000    -1.874000000     5.080000000
C    -1.435000000    -0.837000000     5.143000000
C    -1.864000000     0.383000000     5.562000000
H    -2.874000000     0.585000000     5.909000000
C    -1.186000000     1.555000000     5.260000000
O    -1.844000000     2.703000000     5.710000000
C    -1.503000000     3.930000000     5.298000000
C    -0.729000000     4.678000000     6.200000000
H    -0.372000000     4.243000000     7.130000000
C    -0.433000000     6.020000000     5.954000000
H     0.078000000     6.623000000     6.700000000
C    -0.933000000     6.610000000     4.808000000
H    -0.639000000     7.636000000     4.599000000
C    -1.692000000     5.848000000     3.923000000
C    -1.979000000     4.499000000     4.178000000
H    -2.542000000     3.989000000     3.401000000
C    -1.268000000    -1.033000000     0.001000000
H    -1.639000000    -1.925000000    -0.498000000
C    -0.027000000    -0.492000000    -0.188000000
H     0.697000000    -0.922000000    -0.875000000
C     0.393000000     0.700000000     0.393000000
H     1.273000000     1.283000000     0.021000000
C    -0.475000000     1.385000000     1.240000000
H    -0.037000000     2.282000000     1.670000000
C    -1.727000000     0.811000000     1.585000000
H    -2.363000000     1.246000000     2.352000000
C    -2.066000000    -0.415000000     1.003000000
C    -3.399000000    -1.166000000     1.435000000
O    -4.126000000    -0.655000000     2.255000000
O    -3.758000000    -2.071000000     0.735000000
O    -7.798000000    -5.738000000     2.822000000
H    -7.850000000    -6.610000000     2.430000000
H    -6.877000000    -5.492000000     2.736000000
O    -5.169000000     3.390000000     0.987000000
H    -5.374000000     3.803000000     1.826000000
H    -4.893000000     4.115000000     0.425000000
O    -7.953000000     3.754000000     2.519000000
H    -8.303000000     3.312000000     3.292000000
H    -7.019000000     3.854000000     2.702000000
O    -9.774000000    -1.487000000     0.862000000
H   -10.619000000    -1.384000000     0.425000000
H    -9.128000000    -1.328000000     0.174000000
O    -7.636000000    -0.833000000    -0.574000000
H    -6.926000000    -0.194000000    -0.635000000
H    -7.410000000    -1.372000000     0.184000000
O    -5.459000000     0.867000000    -0.331000000
H    -5.208000000     1.729000000     0.002000000
H    -4.972000000     0.249000000     0.214000000
O    -5.033000000    -1.510000000     4.736000000
H    -5.080000000    -1.287000000     3.807000000
H    -4.099000000    -1.627000000     4.907000000
O    -5.125000000    -5.307000000     3.658000000
H    -5.074000000    -5.181000000     4.605000000
H    -4.242000000    -5.574000000     3.404000000
O    -3.938000000    -0.810000000     7.731000000
H    -4.270000000    -0.146000000     8.336000000
H    -4.599000000    -1.502000000     7.749000000
O    -7.413000000    -2.496000000     5.862000000
H    -7.592000000    -3.415000000     5.666000000
H    -6.637000000    -2.287000000     5.343000000
O    -6.908000000    -3.702000000    -1.589000000
H    -6.251000000    -3.110000000    -1.956000000
H    -6.537000000    -3.982000000    -0.752000000
O    -5.970000000    -6.833000000    -0.595000000
H    -5.727000000    -5.975000000    -0.248000000
H    -6.587000000    -6.640000000    -1.300000000
O    -9.487000000    -4.198000000     1.245000000
H    -9.564000000    -3.245000000     1.206000000
H    -8.712000000    -4.355000000     1.783000000
O    -5.408000000     1.317000000     2.966000000
H    -4.818000000     0.572000000     2.845000000
H    -5.345000000     1.807000000     2.146000000
O    -8.923000000    -0.043000000    -2.931000000
H    -8.688000000    -0.555000000    -2.157000000
H    -9.873000000     0.060000000    -2.870000000
O    -5.446000000    -4.147000000     0.630000000
H    -4.689000000    -3.570000000     0.527000000
H    -5.944000000    -3.762000000     1.351000000
O    -8.021000000    -0.069000000     3.353000000
H    -7.287000000     0.539000000     3.436000000
H    -8.456000000    -0.037000000     4.205000000
O    -5.591000000     1.039000000     5.903000000
H    -5.810000000     1.437000000     5.060000000
H    -5.305000000     0.153000000     5.682000000
O    -6.714000000    -1.852000000     1.605000000
H    -5.793000000    -1.592000000     1.584000000
H    -7.104000000    -1.296000000     2.279000000
