215
-1453.66643
C    -2.463000000    -1.284000000    -3.706000000
H    -1.875000000    -2.158000000    -3.437000000
C    -1.721000000    -0.123000000    -4.034000000
C    -2.431000000     1.062000000    -4.319000000
H    -1.987000000     2.016000000    -4.592000000
C    -0.154000000    -0.135000000    -3.954000000
O     0.462000000    -1.223000000    -4.649000000
H    -0.010000000    -0.126000000    -2.863000000
O     0.387000000     1.110000000    -4.492000000
C     1.431000000     1.744000000    -3.804000000
C     1.076000000     2.867000000    -3.125000000
H     0.058000000     3.237000000    -3.207000000
C     1.994000000     3.491000000    -2.301000000
O     1.522000000     4.585000000    -1.506000000
C     3.324000000     2.967000000    -2.173000000
C     4.292000000     3.580000000    -1.142000000
H     5.335000000     3.350000000    -1.372000000
C     4.128000000     3.128000000     0.309000000
C     4.718000000     1.898000000     0.707000000
H     5.308000000     1.390000000    -0.052000000
H     4.175000000     4.665000000    -1.171000000
C     3.688000000     1.889000000    -2.962000000
H     4.666000000     1.431000000    -2.837000000
C     2.726000000     1.275000000    -3.766000000
C     3.124000000     0.106000000    -4.618000000
H     4.214000000     0.148000000    -4.671000000
H     2.730000000     0.070000000    -5.636000000
C     2.823000000    -1.185000000    -3.836000000
C     3.760000000    -1.772000000    -3.041000000
H     4.752000000    -1.333000000    -2.970000000
C     1.561000000    -1.785000000    -4.053000000
C     1.233000000    -2.959000000    -3.428000000
H     0.224000000    -3.295000000    -3.656000000
C     2.168000000    -3.498000000    -2.558000000
O     1.709000000    -4.551000000    -1.819000000
C     1.156000000    -4.257000000    -0.500000000
C    -0.144000000    -5.075000000    -0.239000000
C    -0.497000000    -5.404000000     1.112000000
H     0.042000000    -5.044000000     1.984000000
C    -1.002000000    -5.426000000    -1.302000000
H    -0.749000000    -5.219000000    -2.338000000
O     2.223000000    -4.436000000     0.512000000
H     0.826000000    -3.209000000    -0.455000000
C     3.406000000    -2.916000000    -2.311000000
C     4.349000000    -3.474000000    -1.274000000
H     5.363000000    -3.245000000    -1.610000000
H     4.179000000    -4.552000000    -1.262000000
C     4.015000000    -2.866000000     0.093000000
C     4.624000000    -1.665000000     0.553000000
H     5.319000000    -1.072000000    -0.036000000
C     3.008000000    -3.356000000     0.896000000
C     2.593000000    -2.753000000     2.114000000
H     1.700000000    -3.149000000     2.591000000
C     3.321000000    -1.708000000     2.632000000
O     2.796000000    -1.041000000     3.766000000
C     2.023000000     0.117000000     3.472000000
C     0.772000000     0.088000000     4.318000000
C     0.082000000    -1.077000000     4.539000000
H     0.461000000    -2.041000000     4.210000000
C     0.244000000     1.280000000     4.769000000
H     0.766000000     2.232000000     4.733000000
O     2.841000000     1.264000000     3.766000000
H     1.809000000     0.053000000     2.395000000
C     4.282000000    -1.065000000     1.824000000
C     5.114000000     0.159000000     2.332000000
H     6.120000000    -0.004000000     1.940000000
H     5.226000000     0.053000000     3.413000000
C     4.402000000     1.347000000     1.945000000
C     3.384000000     1.931000000     2.722000000
C     2.626000000     3.001000000     2.281000000
H     1.738000000     3.326000000     2.816000000
C     3.105000000     3.653000000     1.125000000
O     2.262000000     4.667000000     0.668000000
C     1.116000000     4.292000000    -0.063000000
H     1.055000000     3.197000000     0.026000000
C    -0.158000000     4.893000000     0.428000000
C    -1.225000000     4.884000000    -0.420000000
H    -1.039000000     4.351000000    -1.349000000
C    -0.354000000     5.492000000     1.681000000
H     0.480000000     5.521000000     2.378000000
C    -1.549000000     6.112000000     2.038000000
O    -1.739000000     6.561000000     3.268000000
C    -2.604000000     6.106000000     1.134000000
H    -3.563000000     6.430000000     1.531000000
C    -2.442000000     5.457000000    -0.070000000
O    -3.574000000     5.251000000    -0.849000000
C    -3.430000000     4.931000000    -2.136000000
C    -3.972000000     3.706000000    -2.553000000
H    -4.564000000     3.180000000    -1.809000000
C    -2.818000000     5.819000000    -3.061000000
H    -2.353000000     6.748000000    -2.740000000
C    -2.974000000     5.530000000    -4.423000000
H    -2.573000000     6.227000000    -5.154000000
C    -3.561000000     4.317000000    -4.873000000
H    -3.554000000     4.029000000    -5.921000000
C    -4.057000000     3.450000000    -3.951000000
O    -4.535000000     2.249000000    -4.411000000
C    -3.814000000     1.055000000    -4.238000000
C    -4.547000000    -0.096000000    -3.962000000
H    -5.606000000     0.059000000    -3.776000000
C    -3.905000000    -1.293000000    -3.760000000
O    -4.785000000    -2.368000000    -3.663000000
C    -4.412000000    -3.702000000    -3.900000000
C    -3.748000000    -4.420000000    -2.877000000
H    -3.547000000    -3.817000000    -1.995000000
C    -4.641000000    -4.314000000    -5.133000000
H    -5.001000000    -3.715000000    -5.966000000
C    -4.245000000    -5.606000000    -5.352000000
H    -4.248000000    -6.075000000    -6.332000000
C    -3.814000000    -6.384000000    -4.226000000
H    -3.543000000    -7.436000000    -4.276000000
C    -3.467000000    -5.779000000    -3.039000000
O    -3.007000000    -6.563000000    -1.991000000
C    -2.165000000    -6.082000000    -1.047000000
C    -2.515000000    -6.350000000     0.254000000
H    -3.413000000    -6.936000000     0.431000000
C    -1.757000000    -6.025000000     1.282000000
O    -2.186000000    -6.334000000     2.565000000
C    -1.915000000    -5.583000000     3.755000000
C    -2.302000000    -4.231000000     3.914000000
H    -3.171000000    -3.803000000     3.421000000
C    -0.984000000    -6.136000000     4.603000000
H    -0.812000000    -7.199000000     4.455000000
C    -0.315000000    -5.401000000     5.538000000
H     0.394000000    -5.881000000     6.207000000
C    -0.637000000    -4.069000000     5.748000000
H    -0.132000000    -3.486000000     6.514000000
C    -1.625000000    -3.499000000     4.885000000
O    -2.009000000    -2.198000000     5.154000000
C    -1.164000000    -1.084000000     5.122000000
C    -1.654000000     0.092000000     5.553000000
H    -2.614000000     0.105000000     6.064000000
C    -0.953000000     1.306000000     5.402000000
O    -1.557000000     2.487000000     5.798000000
C    -1.088000000     3.789000000     5.587000000
C    -0.403000000     4.402000000     6.608000000
H     0.033000000     3.892000000     7.463000000
C    -0.140000000     5.761000000     6.516000000
H     0.590000000     6.172000000     7.208000000
C    -0.513000000     6.454000000     5.384000000
H    -0.244000000     7.503000000     5.287000000
C    -1.321000000     5.831000000     4.380000000
C    -1.657000000     4.499000000     4.559000000
H    -2.165000000     3.958000000     3.765000000
C    -1.256000000    -1.257000000    -0.051000000
H    -1.591000000    -2.271000000    -0.250000000
C     0.014000000    -0.715000000    -0.342000000
H     0.769000000    -1.286000000    -0.875000000
C     0.386000000     0.536000000     0.128000000
H     1.449000000     0.851000000    -0.028000000
C    -0.509000000     1.288000000     0.901000000
H    -0.174000000     2.234000000     1.319000000
C    -1.810000000     0.822000000     1.022000000
H    -2.463000000     1.471000000     1.600000000
C    -2.197000000    -0.381000000     0.543000000
C    -3.598000000    -0.795000000     0.810000000
O    -4.304000000    -0.079000000     1.547000000
O    -4.075000000    -1.800000000     0.229000000
O    -5.273000000    -5.309000000     2.600000000
H    -4.982000000    -6.221000000     2.627000000
H    -5.524000000    -5.111000000     3.502000000
O    -5.829000000     4.189000000     1.847000000
H    -6.381000000     4.716000000     1.270000000
H    -5.542000000     4.799000000     2.527000000
O    -8.636000000     2.135000000     5.031000000
H    -7.831000000     2.320000000     4.547000000
H    -8.336000000     1.854000000     5.895000000
O    -7.511000000    -2.836000000    -2.986000000
H    -6.725000000    -2.523000000    -3.433000000
H    -7.431000000    -2.495000000    -2.095000000
O    -5.870000000    -1.084000000     5.325000000
H    -5.561000000    -1.796000000     4.766000000
H    -6.263000000    -1.524000000     6.079000000
O    -8.928000000     1.105000000     1.957000000
H    -8.774000000     0.653000000     1.127000000
H    -8.054000000     1.352000000     2.260000000
O    -5.671000000     1.920000000     0.201000000
H    -5.758000000     2.580000000     0.888000000
H    -4.890000000     1.422000000     0.444000000
O    -6.450000000    -1.570000000     2.432000000
H    -5.692000000    -1.015000000     2.245000000
H    -6.466000000    -2.203000000     1.714000000
O    -6.251000000    -0.630000000    -0.915000000
H    -6.285000000     0.271000000    -0.595000000
H    -5.342000000    -0.898000000    -0.780000000
O    -6.049000000    -6.942000000    -1.089000000
H    -5.936000000    -6.034000000    -0.808000000
H    -6.663000000    -6.891000000    -1.822000000
O    -8.564000000    -4.225000000     0.089000000
H    -8.879000000    -4.640000000     0.892000000
H    -7.611000000    -4.299000000     0.138000000
O    -5.884000000     0.909000000     3.514000000
H    -6.025000000     0.074000000     3.959000000
H    -5.439000000     0.675000000     2.699000000
O    -5.581000000     0.876000000     7.449000000
H    -5.138000000     0.245000000     6.882000000
H    -5.506000000     1.710000000     6.984000000
O    -8.532000000     0.127000000    -3.245000000
H    -8.101000000     0.472000000    -2.463000000
H    -9.309000000    -0.322000000    -2.912000000
O    -7.943000000     1.797000000    -1.129000000
H    -7.135000000     2.070000000    -0.693000000
H    -8.538000000     2.538000000    -1.016000000
O    -5.817000000    -4.080000000     0.047000000
H    -5.260000000    -3.323000000    -0.137000000
H    -5.503000000    -4.409000000     0.890000000
O    -9.076000000    -1.919000000     3.809000000
H    -8.275000000    -1.553000000     3.434000000
H    -8.771000000    -2.619000000     4.387000000
O    -5.695000000     2.768000000     5.436000000
H    -5.259000000     3.609000000     5.301000000
H    -5.675000000     2.347000000     4.576000000
O    -8.743000000    -1.236000000     0.018000000
H    -7.928000000    -0.926000000    -0.378000000
H    -8.733000000    -2.183000000    -0.125000000
