215
-1443.53375
C    -2.160000000    -0.313000000    -4.961000000
H    -1.729000000    -1.297000000    -5.130000000
C    -1.391000000     0.742000000    -4.497000000
C    -1.891000000     2.000000000    -4.378000000
H    -1.240000000     2.835000000    -4.132000000
C     0.117000000     0.520000000    -4.064000000
O     0.659000000    -0.679000000    -4.700000000
H     0.240000000     0.456000000    -2.973000000
O     0.923000000     1.679000000    -4.345000000
C     1.919000000     2.002000000    -3.462000000
C     1.721000000     3.073000000    -2.646000000
H     0.757000000     3.575000000    -2.662000000
C     2.642000000     3.491000000    -1.706000000
O     2.161000000     4.485000000    -0.921000000
C     3.771000000     2.735000000    -1.487000000
C     4.847000000     3.028000000    -0.501000000
H     5.831000000     2.664000000    -0.804000000
C     4.455000000     2.399000000     0.859000000
C     5.058000000     1.218000000     1.282000000
H     5.934000000     0.858000000     0.749000000
H     4.964000000     4.100000000    -0.329000000
C     4.047000000     1.660000000    -2.306000000
H     4.982000000     1.125000000    -2.161000000
C     3.095000000     1.208000000    -3.255000000
C     3.400000000     0.005000000    -4.156000000
H     4.469000000    -0.206000000    -4.219000000
H     3.083000000     0.215000000    -5.180000000
C     2.735000000    -1.219000000    -3.669000000
C     3.442000000    -2.086000000    -2.807000000
H     4.467000000    -1.942000000    -2.474000000
C     1.417000000    -1.535000000    -3.951000000
C     0.764000000    -2.633000000    -3.507000000
H    -0.290000000    -2.715000000    -3.761000000
C     1.481000000    -3.454000000    -2.650000000
O     0.879000000    -4.475000000    -2.123000000
C     0.432000000    -4.254000000    -0.701000000
C    -1.060000000    -4.687000000    -0.540000000
C    -1.552000000    -4.816000000     0.736000000
H    -0.906000000    -4.795000000     1.610000000
C    -1.842000000    -4.926000000    -1.699000000
H    -1.483000000    -4.968000000    -2.724000000
O     1.281000000    -4.860000000     0.306000000
H     0.466000000    -3.166000000    -0.544000000
C     2.829000000    -3.194000000    -2.266000000
C     3.602000000    -4.078000000    -1.264000000
H     4.663000000    -4.150000000    -1.510000000
H     3.190000000    -5.089000000    -1.294000000
C     3.359000000    -3.503000000     0.158000000
C     4.245000000    -2.616000000     0.790000000
H     5.093000000    -2.218000000     0.240000000
C     2.186000000    -3.964000000     0.879000000
C     1.984000000    -3.458000000     2.111000000
H     1.164000000    -3.838000000     2.715000000
C     2.824000000    -2.480000000     2.661000000
O     2.412000000    -1.928000000     3.897000000
C     1.898000000    -0.627000000     3.969000000
C     0.754000000    -0.538000000     4.840000000
C    -0.039000000    -1.679000000     4.927000000
H     0.221000000    -2.611000000     4.430000000
C     0.310000000     0.624000000     5.407000000
H     0.848000000     1.547000000     5.207000000
O     2.924000000     0.334000000     4.136000000
H     1.464000000    -0.372000000     2.991000000
C     3.995000000    -2.064000000     2.063000000
C     4.973000000    -1.022000000     2.544000000
H     5.964000000    -1.154000000     2.105000000
H     5.119000000    -1.093000000     3.624000000
C     4.505000000     0.429000000     2.318000000
C     3.511000000     1.040000000     3.091000000
C     2.966000000     2.228000000     2.731000000
H     2.194000000     2.670000000     3.355000000
C     3.378000000     2.897000000     1.614000000
O     2.682000000     4.036000000     1.342000000
C     1.631000000     3.973000000     0.334000000
H     1.357000000     2.916000000     0.200000000
C     0.330000000     4.706000000     0.653000000
C    -0.609000000     5.151000000    -0.324000000
H    -0.266000000     5.133000000    -1.356000000
C    -0.190000000     4.729000000     2.008000000
H     0.303000000     4.150000000     2.785000000
C    -1.449000000     5.271000000     2.338000000
O    -2.023000000     5.167000000     3.661000000
C    -2.228000000     5.849000000     1.355000000
H    -3.224000000     6.194000000     1.625000000
C    -1.877000000     5.730000000    -0.015000000
O    -2.701000000     6.217000000    -0.996000000
C    -2.589000000     5.952000000    -2.375000000
C    -3.133000000     4.742000000    -2.907000000
H    -3.410000000     3.892000000    -2.289000000
C    -2.134000000     6.923000000    -3.260000000
H    -1.594000000     7.759000000    -2.824000000
C    -2.310000000     6.857000000    -4.633000000
H    -1.962000000     7.720000000    -5.195000000
C    -2.889000000     5.656000000    -5.159000000
H    -3.095000000     5.499000000    -6.214000000
C    -3.337000000     4.596000000    -4.294000000
O    -3.841000000     3.439000000    -4.880000000
C    -3.221000000     2.177000000    -4.726000000
C    -4.046000000     1.133000000    -5.182000000
H    -5.062000000     1.310000000    -5.525000000
C    -3.515000000    -0.179000000    -5.287000000
O    -4.335000000    -1.238000000    -5.528000000
C    -4.005000000    -2.563000000    -5.231000000
C    -4.122000000    -3.069000000    -3.971000000
H    -4.354000000    -2.368000000    -3.174000000
C    -3.709000000    -3.423000000    -6.298000000
H    -3.620000000    -3.063000000    -7.320000000
C    -3.447000000    -4.736000000    -6.099000000
H    -3.190000000    -5.445000000    -6.882000000
C    -3.577000000    -5.269000000    -4.809000000
H    -3.341000000    -6.316000000    -4.635000000
C    -3.950000000    -4.414000000    -3.733000000
O    -4.157000000    -4.987000000    -2.541000000
C    -3.209000000    -5.083000000    -1.534000000
C    -3.738000000    -5.214000000    -0.236000000
H    -4.796000000    -5.433000000    -0.120000000
C    -2.912000000    -5.183000000     0.879000000
O    -3.553000000    -5.303000000     2.143000000
C    -2.778000000    -5.174000000     3.255000000
C    -2.849000000    -4.026000000     4.004000000
H    -3.519000000    -3.204000000     3.767000000
C    -1.849000000    -6.187000000     3.629000000
H    -1.714000000    -6.979000000     2.897000000
C    -1.125000000    -6.098000000     4.800000000
H    -0.298000000    -6.726000000     5.120000000
C    -1.290000000    -4.945000000     5.570000000
H    -0.576000000    -4.745000000     6.364000000
C    -2.062000000    -3.915000000     5.170000000
O    -2.041000000    -2.795000000     5.974000000
C    -1.200000000    -1.701000000     5.735000000
C    -1.626000000    -0.523000000     6.317000000
H    -2.572000000    -0.565000000     6.850000000
C    -0.916000000     0.620000000     6.118000000
O    -1.234000000     1.724000000     6.898000000
C    -1.081000000     3.060000000     6.472000000
C    -0.320000000     3.902000000     7.262000000
H    -0.011000000     3.436000000     8.194000000
C    -0.141000000     5.200000000     6.820000000
H     0.375000000     5.921000000     7.449000000
C    -0.679000000     5.575000000     5.619000000
H    -0.469000000     6.605000000     5.342000000
C    -1.427000000     4.667000000     4.812000000
C    -1.636000000     3.439000000     5.309000000
H    -2.024000000     2.653000000     4.666000000
C    -2.727000000    -1.171000000    -0.570000000
H    -3.347000000    -1.930000000    -1.039000000
C    -1.577000000    -0.745000000    -1.197000000
H    -1.356000000    -0.872000000    -2.254000000
C    -0.812000000     0.237000000    -0.554000000
H     0.135000000     0.656000000    -1.005000000
C    -1.079000000     0.679000000     0.756000000
H    -0.347000000     1.365000000     1.173000000
C    -2.266000000     0.295000000     1.350000000
H    -2.512000000     0.637000000     2.352000000
C    -3.059000000    -0.702000000     0.704000000
C    -4.262000000    -1.191000000     1.315000000
O    -4.540000000    -0.744000000     2.422000000
O    -5.069000000    -1.844000000     0.654000000
O    -5.175000000    -5.062000000     5.818000000
H    -4.817000000    -5.271000000     4.955000000
H    -6.122000000    -5.037000000     5.685000000
O    -5.171000000     2.595000000     2.338000000
H    -6.076000000     2.908000000     2.355000000
H    -5.248000000     1.642000000     2.307000000
O    -9.121000000    -3.028000000     1.850000000
H    -8.454000000    -3.707000000     1.751000000
H    -8.649000000    -2.206000000     1.716000000
O    -5.238000000    -2.292000000     6.793000000
H    -6.194000000    -2.239000000     6.791000000
H    -5.042000000    -3.089000000     6.300000000
O    -3.993000000     1.979000000    -0.302000000
H    -3.319000000     1.398000000     0.049000000
H    -4.219000000     2.553000000     0.431000000
O    -6.459000000    -2.983000000     4.110000000
H    -5.877000000    -2.313000000     3.751000000
H    -7.146000000    -2.489000000     4.556000000
O    -6.695000000    -6.837000000     1.192000000
H    -6.849000000    -5.892000000     1.195000000
H    -6.636000000    -7.073000000     2.117000000
O    -6.802000000    -1.931000000    -1.591000000
H    -6.431000000    -2.117000000    -0.729000000
H    -6.684000000    -0.988000000    -1.705000000
O    -7.694000000    -4.168000000    -2.935000000
H    -7.627000000    -3.447000000    -2.309000000
H    -7.361000000    -4.929000000    -2.460000000
O    -7.347000000    -0.652000000     1.968000000
H    -7.276000000     0.157000000     1.461000000
H    -6.507000000    -1.091000000     1.837000000
O    -4.951000000     0.155000000     4.919000000
H    -4.815000000     0.074000000     3.975000000
H    -4.963000000    -0.747000000     5.238000000
O    -6.314000000     2.440000000     5.597000000
H    -5.628000000     1.883000000     5.230000000
H    -7.062000000     2.315000000     5.013000000
O    -8.382000000    -1.516000000     5.614000000
H    -9.337000000    -1.536000000     5.672000000
H    -8.165000000    -0.587000000     5.535000000
O    -5.780000000     0.997000000    -2.025000000
H    -4.943000000     1.374000000    -1.755000000
H    -6.386000000     1.233000000    -1.323000000
O    -7.525000000     1.535000000     0.364000000
H    -7.472000000     2.470000000     0.164000000
H    -8.443000000     1.309000000     0.212000000
O    -6.495000000    -4.176000000     1.511000000
H    -5.831000000    -3.622000000     1.098000000
H    -6.301000000    -4.124000000     2.447000000
O    -9.187000000     1.404000000    -2.802000000
H    -8.472000000     1.851000000    -2.350000000
H    -9.935000000     1.994000000    -2.711000000
O    -8.389000000     1.515000000     3.671000000
H    -7.933000000     0.730000000     3.369000000
H    -8.316000000     2.131000000     2.942000000
O    -7.681000000     3.913000000     2.442000000
H    -8.368000000     4.465000000     2.816000000
H    -7.691000000     4.119000000     1.507000000
