215
-1458.80974
C    -2.566000000     0.293000000    -4.538000000
H    -2.220000000    -0.724000000    -4.705000000
C    -1.640000000     1.311000000    -4.194000000
C    -2.070000000     2.573000000    -3.790000000
H    -1.334000000     3.346000000    -3.587000000
C    -0.185000000     1.000000000    -4.123000000
O     0.336000000    -0.042000000    -4.992000000
H     0.088000000     0.731000000    -3.092000000
O     0.659000000     2.162000000    -4.380000000
C     1.678000000     2.342000000    -3.464000000
C     1.455000000     3.262000000    -2.517000000
H     0.507000000     3.786000000    -2.428000000
C     2.408000000     3.457000000    -1.502000000
O     2.043000000     4.311000000    -0.476000000
C     3.564000000     2.709000000    -1.492000000
C     4.678000000     2.865000000    -0.418000000
H     5.649000000     2.647000000    -0.866000000
C     4.375000000     2.159000000     0.884000000
C     5.000000000     0.900000000     1.095000000
H     5.792000000     0.532000000     0.448000000
H     4.843000000     3.926000000    -0.222000000
C     3.794000000     1.831000000    -2.519000000
H     4.707000000     1.247000000    -2.593000000
C     2.853000000     1.652000000    -3.550000000
C     3.110000000     0.618000000    -4.665000000
H     4.165000000     0.548000000    -4.938000000
H     2.565000000     0.895000000    -5.569000000
C     2.562000000    -0.707000000    -4.235000000
C     3.319000000    -1.714000000    -3.492000000
H     4.352000000    -1.533000000    -3.208000000
C     1.156000000    -0.941000000    -4.412000000
C     0.493000000    -2.082000000    -3.951000000
H    -0.581000000    -2.157000000    -4.099000000
C     1.229000000    -2.990000000    -3.205000000
O     0.537000000    -4.072000000    -2.703000000
C     0.219000000    -4.055000000    -1.274000000
C    -1.168000000    -4.586000000    -0.953000000
C    -1.528000000    -5.052000000     0.316000000
H    -0.804000000    -4.988000000     1.125000000
C    -2.183000000    -4.421000000    -1.856000000
H    -2.009000000    -3.889000000    -2.787000000
O     1.216000000    -4.800000000    -0.509000000
H     0.256000000    -3.011000000    -0.929000000
C     2.588000000    -2.815000000    -2.995000000
C     3.300000000    -3.871000000    -2.132000000
H     4.325000000    -4.012000000    -2.482000000
H     2.865000000    -4.850000000    -2.337000000
C     3.270000000    -3.530000000    -0.644000000
C     4.242000000    -2.720000000    -0.004000000
H     5.100000000    -2.302000000    -0.525000000
C     2.204000000    -4.009000000     0.049000000
C     2.084000000    -3.801000000     1.392000000
H     1.262000000    -4.333000000     1.864000000
C     2.891000000    -2.869000000     2.068000000
O     2.612000000    -2.482000000     3.370000000
C     1.955000000    -1.246000000     3.510000000
C     0.864000000    -1.222000000     4.555000000
C     0.021000000    -2.288000000     4.607000000
H     0.200000000    -3.064000000     3.866000000
C     0.546000000    -0.115000000     5.340000000
H     1.200000000     0.743000000     5.204000000
O     3.077000000    -0.309000000     3.905000000
H     1.482000000    -1.041000000     2.538000000
C     4.024000000    -2.338000000     1.372000000
C     5.031000000    -1.489000000     2.090000000
H     5.947000000    -1.699000000     1.533000000
H     5.215000000    -1.797000000     3.121000000
C     4.534000000    -0.004000000     2.075000000
C     3.527000000     0.470000000     2.931000000
C     2.933000000     1.750000000     2.813000000
H     2.236000000     2.085000000     3.576000000
C     3.386000000     2.544000000     1.761000000
O     2.712000000     3.738000000     1.725000000
C     1.576000000     3.812000000     0.770000000
H     1.129000000     2.811000000     0.689000000
C     0.378000000     4.685000000     1.217000000
C    -0.434000000     5.442000000     0.307000000
H    -0.250000000     5.450000000    -0.764000000
C    -0.161000000     4.517000000     2.478000000
H     0.323000000     3.759000000     3.088000000
C    -1.357000000     5.065000000     2.898000000
O    -2.045000000     4.598000000     4.032000000
C    -2.003000000     5.945000000     2.016000000
H    -2.972000000     6.345000000     2.302000000
C    -1.537000000     6.128000000     0.743000000
O    -2.285000000     6.810000000    -0.126000000
C    -2.357000000     6.549000000    -1.457000000
C    -3.154000000     5.455000000    -1.840000000
H    -3.653000000     4.839000000    -1.097000000
C    -1.743000000     7.360000000    -2.356000000
H    -1.288000000     8.289000000    -2.020000000
C    -1.870000000     7.102000000    -3.722000000
H    -1.358000000     7.690000000    -4.480000000
C    -2.467000000     5.941000000    -4.123000000
H    -2.581000000     5.626000000    -5.157000000
C    -3.074000000     5.151000000    -3.192000000
O    -3.855000000     4.120000000    -3.626000000
C    -3.395000000     2.855000000    -3.842000000
C    -4.331000000     1.868000000    -4.235000000
H    -5.382000000     2.145000000    -4.224000000
C    -3.910000000     0.599000000    -4.537000000
O    -4.840000000    -0.457000000    -4.534000000
C    -4.557000000    -1.783000000    -4.757000000
C    -4.709000000    -2.608000000    -3.676000000
H    -5.053000000    -2.116000000    -2.770000000
C    -3.992000000    -2.324000000    -5.894000000
H    -3.850000000    -1.651000000    -6.736000000
C    -3.706000000    -3.693000000    -5.964000000
H    -3.386000000    -4.120000000    -6.911000000
C    -3.645000000    -4.444000000    -4.785000000
H    -3.282000000    -5.469000000    -4.796000000
C    -4.310000000    -3.950000000    -3.654000000
O    -4.395000000    -4.766000000    -2.571000000
C    -3.444000000    -4.973000000    -1.609000000
C    -3.747000000    -5.589000000    -0.369000000
H    -4.690000000    -6.115000000    -0.248000000
C    -2.785000000    -5.606000000     0.624000000
O    -3.149000000    -6.070000000     1.833000000
C    -2.379000000    -5.891000000     2.946000000
C    -2.616000000    -4.778000000     3.778000000
H    -3.474000000    -4.138000000     3.594000000
C    -1.356000000    -6.836000000     3.316000000
H    -1.160000000    -7.647000000     2.619000000
C    -0.501000000    -6.592000000     4.370000000
H     0.346000000    -7.258000000     4.512000000
C    -0.734000000    -5.455000000     5.124000000
H    -0.095000000    -5.289000000     5.988000000
C    -1.726000000    -4.512000000     4.805000000
O    -1.916000000    -3.433000000     5.581000000
C    -1.098000000    -2.304000000     5.500000000
C    -1.319000000    -1.238000000     6.357000000
H    -2.238000000    -1.311000000     6.934000000
C    -0.590000000    -0.036000000     6.114000000
O    -0.807000000     1.055000000     6.900000000
C    -0.525000000     2.315000000     6.467000000
C     0.249000000     3.186000000     7.234000000
H     0.886000000     2.717000000     7.979000000
C     0.255000000     4.543000000     6.908000000
H     0.993000000     5.133000000     7.447000000
C    -0.524000000     5.000000000     5.837000000
H    -0.547000000     6.052000000     5.563000000
C    -1.296000000     4.114000000     5.085000000
C    -1.252000000     2.775000000     5.400000000
H    -1.983000000     2.157000000     4.885000000
C    -2.395000000    -1.618000000     0.113000000
H    -2.961000000    -2.436000000    -0.325000000
C    -1.239000000    -1.059000000    -0.543000000
H    -1.000000000    -1.326000000    -1.569000000
C    -0.413000000    -0.172000000     0.077000000
H     0.402000000     0.247000000    -0.410000000
C    -0.760000000     0.306000000     1.313000000
H    -0.123000000     1.101000000     1.692000000
C    -1.933000000    -0.150000000     1.944000000
H    -2.287000000     0.319000000     2.859000000
C    -2.734000000    -1.137000000     1.332000000
C    -3.839000000    -1.660000000     2.107000000
O    -4.082000000    -1.254000000     3.228000000
O    -4.665000000    -2.410000000     1.638000000
O    -4.379000000     2.566000000     1.580000000
H    -4.978000000     3.307000000     1.492000000
H    -4.565000000     2.209000000     2.449000000
O    -8.880000000    -3.816000000     2.988000000
H    -8.038000000    -3.369000000     2.904000000
H    -9.135000000    -4.016000000     2.088000000
O    -4.223000000    -4.225000000     7.360000000
H    -4.613000000    -3.824000000     6.583000000
H    -3.764000000    -4.996000000     7.027000000
O    -3.578000000     1.272000000    -0.532000000
H    -3.889000000     1.875000000     0.144000000
H    -2.654000000     1.136000000    -0.325000000
O    -5.444000000    -3.041000000     5.013000000
H    -4.897000000    -2.518000000     4.426000000
H    -6.259000000    -2.545000000     5.086000000
O    -5.813000000    -7.659000000     1.655000000
H    -5.568000000    -8.147000000     2.441000000
H    -5.777000000    -6.740000000     1.923000000
O    -5.928000000     0.713000000     7.245000000
H    -6.659000000     0.867000000     6.646000000
H    -5.198000000     0.473000000     6.674000000
O    -6.061000000    -5.876000000     4.126000000
H    -6.705000000    -6.494000000     4.473000000
H    -6.089000000    -5.135000000     4.731000000
O    -7.851000000    -6.107000000    -0.101000000
H    -7.675000000    -7.048000000    -0.081000000
H    -7.106000000    -5.715000000     0.354000000
O    -6.351000000    -2.249000000    -0.500000000
H    -5.748000000    -2.471000000     0.209000000
H    -6.356000000    -1.292000000    -0.520000000
O    -7.630000000    -4.030000000    -1.968000000
H    -7.184000000    -3.446000000    -1.354000000
H    -7.883000000    -4.786000000    -1.438000000
O    -6.662000000    -0.062000000     2.771000000
H    -6.602000000     0.092000000     1.828000000
H    -5.781000000    -0.336000000     3.026000000
O    -3.804000000     0.413000000     5.249000000
H    -3.845000000    -0.073000000     4.425000000
H    -2.911000000     0.276000000     5.564000000
O    -6.296000000     3.815000000     5.072000000
H    -6.689000000     2.955000000     5.221000000
H    -6.160000000     3.855000000     4.125000000
O    -7.724000000    -1.509000000     5.074000000
H    -8.652000000    -1.427000000     5.298000000
H    -7.647000000    -1.091000000     4.217000000
O    -6.267000000     0.453000000    -0.344000000
H    -5.325000000     0.619000000    -0.367000000
H    -6.664000000     1.325000000    -0.344000000
O    -6.105000000    -4.628000000     1.745000000
H    -5.615000000    -3.812000000     1.642000000
H    -5.965000000    -4.879000000     2.658000000
O    -7.635000000     0.619000000    -2.945000000
H    -6.762000000     0.529000000    -2.562000000
H    -8.234000000     0.477000000    -2.211000000
O    -7.700000000     1.439000000     5.137000000
H    -7.298000000     0.973000000     4.404000000
H    -8.609000000     1.571000000     4.867000000
