215
-1464.63940
C    -2.583000000     1.028000000    -4.538000000
H    -2.367000000     0.107000000    -5.072000000
C    -1.608000000     1.864000000    -4.054000000
C    -2.051000000     2.979000000    -3.311000000
H    -1.362000000     3.683000000    -2.849000000
C    -0.191000000     1.307000000    -4.004000000
O    -0.030000000     0.201000000    -4.891000000
H    -0.102000000     0.881000000    -2.994000000
O     0.770000000     2.328000000    -4.247000000
C     1.881000000     2.379000000    -3.449000000
C     1.812000000     3.295000000    -2.451000000
H     0.976000000     3.990000000    -2.441000000
C     2.764000000     3.301000000    -1.418000000
O     2.574000000     4.139000000    -0.370000000
C     3.798000000     2.441000000    -1.525000000
C     4.976000000     2.319000000    -0.504000000
H     5.825000000     1.923000000    -1.065000000
C     4.572000000     1.477000000     0.680000000
C     5.048000000     0.153000000     0.690000000
H     5.746000000    -0.204000000    -0.063000000
H     5.302000000     3.281000000    -0.102000000
C     3.859000000     1.564000000    -2.584000000
H     4.728000000     0.910000000    -2.582000000
C     2.905000000     1.472000000    -3.573000000
C     2.946000000     0.439000000    -4.679000000
H     3.978000000     0.179000000    -4.920000000
H     2.562000000     0.881000000    -5.600000000
C     2.182000000    -0.833000000    -4.403000000
C     2.874000000    -1.893000000    -3.779000000
H     3.948000000    -1.842000000    -3.619000000
C     0.799000000    -0.914000000    -4.652000000
C     0.176000000    -2.199000000    -4.425000000
H    -0.889000000    -2.315000000    -4.608000000
C     0.832000000    -3.142000000    -3.642000000
O     0.015000000    -4.109000000    -3.108000000
C    -0.240000000    -3.935000000    -1.657000000
C    -1.727000000    -4.018000000    -1.366000000
C    -2.195000000    -4.075000000    -0.035000000
H    -1.446000000    -4.253000000     0.732000000
C    -2.663000000    -3.921000000    -2.362000000
H    -2.378000000    -3.803000000    -3.405000000
O     0.569000000    -4.907000000    -0.943000000
H    -0.039000000    -2.898000000    -1.351000000
C     2.180000000    -3.001000000    -3.299000000
C     2.915000000    -4.083000000    -2.548000000
H     3.955000000    -3.957000000    -2.857000000
H     2.555000000    -5.068000000    -2.852000000
C     2.779000000    -3.853000000    -1.111000000
C     3.877000000    -3.287000000    -0.431000000
H     4.816000000    -3.175000000    -0.967000000
C     1.665000000    -4.284000000    -0.363000000
C     1.656000000    -4.118000000     1.013000000
H     0.777000000    -4.378000000     1.597000000
C     2.603000000    -3.301000000     1.610000000
O     2.463000000    -3.088000000     2.956000000
C     1.985000000    -1.738000000     3.296000000
C     0.999000000    -1.706000000     4.432000000
C     0.074000000    -2.734000000     4.559000000
H    -0.010000000    -3.500000000     3.792000000
C     0.970000000    -0.677000000     5.401000000
H     1.739000000     0.091000000     5.361000000
O     3.208000000    -1.099000000     3.646000000
H     1.485000000    -1.263000000     2.439000000
C     3.755000000    -2.907000000     0.950000000
C     4.908000000    -2.232000000     1.625000000
H     5.844000000    -2.331000000     1.071000000
H     5.114000000    -2.664000000     2.606000000
C     4.628000000    -0.732000000     1.718000000
C     3.723000000    -0.236000000     2.706000000
C     3.418000000     1.128000000     2.722000000
H     2.749000000     1.490000000     3.499000000
C     3.761000000     1.971000000     1.718000000
O     3.306000000     3.289000000     1.763000000
C     2.198000000     3.580000000     0.904000000
H     1.688000000     2.607000000     0.845000000
C     1.158000000     4.446000000     1.644000000
C     0.440000000     5.450000000     0.979000000
H     0.626000000     5.740000000    -0.053000000
C     0.770000000     4.140000000     2.931000000
H     1.320000000     3.396000000     3.502000000
C    -0.455000000     4.538000000     3.467000000
O    -0.950000000     3.835000000     4.563000000
C    -1.241000000     5.470000000     2.775000000
H    -2.248000000     5.695000000     3.115000000
C    -0.744000000     5.961000000     1.562000000
O    -1.505000000     6.845000000     0.865000000
C    -1.637000000     6.673000000    -0.486000000
C    -2.606000000     5.759000000    -0.863000000
H    -3.163000000     5.214000000    -0.105000000
C    -1.057000000     7.521000000    -1.363000000
H    -0.499000000     8.354000000    -0.944000000
C    -1.287000000     7.388000000    -2.766000000
H    -0.870000000     8.129000000    -3.444000000
C    -2.163000000     6.389000000    -3.233000000
H    -2.414000000     6.335000000    -4.289000000
C    -2.896000000     5.590000000    -2.241000000
O    -3.756000000     4.608000000    -2.721000000
C    -3.375000000     3.424000000    -3.293000000
C    -4.245000000     2.712000000    -4.055000000
H    -5.220000000     3.110000000    -4.324000000
C    -3.914000000     1.472000000    -4.545000000
O    -4.859000000     0.557000000    -4.959000000
C    -4.719000000    -0.826000000    -5.116000000
C    -4.720000000    -1.669000000    -3.996000000
H    -4.877000000    -1.296000000    -2.987000000
C    -4.458000000    -1.353000000    -6.415000000
H    -4.470000000    -0.742000000    -7.314000000
C    -4.309000000    -2.764000000    -6.505000000
H    -4.075000000    -3.216000000    -7.466000000
C    -4.460000000    -3.587000000    -5.417000000
H    -4.323000000    -4.661000000    -5.511000000
C    -4.700000000    -3.033000000    -4.138000000
O    -4.976000000    -3.870000000    -3.064000000
C    -4.033000000    -3.930000000    -2.081000000
C    -4.501000000    -3.906000000    -0.798000000
H    -5.556000000    -3.965000000    -0.543000000
C    -3.576000000    -4.062000000     0.229000000
O    -4.095000000    -4.152000000     1.521000000
C    -3.384000000    -4.740000000     2.576000000
C    -2.800000000    -3.898000000     3.550000000
H    -2.808000000    -2.812000000     3.511000000
C    -3.313000000    -6.141000000     2.729000000
H    -3.636000000    -6.797000000     1.925000000
C    -2.728000000    -6.750000000     3.852000000
H    -2.634000000    -7.823000000     4.004000000
C    -2.153000000    -5.875000000     4.842000000
H    -1.765000000    -6.251000000     5.785000000
C    -2.217000000    -4.481000000     4.691000000
O    -1.795000000    -3.721000000     5.728000000
C    -0.848000000    -2.762000000     5.607000000
C    -0.808000000    -1.808000000     6.643000000
H    -1.422000000    -1.857000000     7.538000000
C     0.063000000    -0.750000000     6.440000000
O     0.140000000     0.200000000     7.416000000
C     0.242000000     1.524000000     7.096000000
C     1.139000000     2.460000000     7.774000000
H     1.720000000     2.081000000     8.612000000
C     1.346000000     3.741000000     7.332000000
H     2.090000000     4.389000000     7.786000000
C     0.668000000     4.254000000     6.249000000
H     1.054000000     5.169000000     5.807000000
C    -0.247000000     3.411000000     5.589000000
C    -0.453000000     2.088000000     6.038000000
H    -1.162000000     1.477000000     5.485000000
C    -2.465000000    -0.880000000     0.106000000
H    -3.390000000    -1.311000000    -0.272000000
C    -1.371000000    -0.733000000    -0.795000000
H    -1.360000000    -0.999000000    -1.849000000
C    -0.140000000    -0.273000000    -0.353000000
H     0.614000000    -0.122000000    -1.123000000
C     0.059000000     0.156000000     0.946000000
H     1.041000000     0.510000000     1.248000000
C    -1.027000000     0.044000000     1.818000000
H    -0.871000000     0.435000000     2.820000000
C    -2.261000000    -0.482000000     1.470000000
C    -3.443000000    -0.399000000     2.417000000
O    -3.447000000     0.355000000     3.372000000
O    -4.412000000    -0.926000000     2.075000000
O    -5.129000000     2.419000000     3.655000000
H    -5.843000000     1.881000000     3.998000000
H    -4.367000000     1.840000000     3.665000000
O    -7.990000000    -2.159000000    -0.848000000
H    -8.678000000    -1.514000000    -0.686000000
H    -7.184000000    -1.726000000    -0.565000000
O    -9.099000000     2.193000000     1.389000000
H    -9.485000000     1.905000000     0.562000000
H    -8.972000000     1.386000000     1.888000000
O    -8.772000000    -0.079000000     2.827000000
H    -9.272000000    -0.872000000     3.019000000
H    -8.175000000    -0.336000000     2.124000000
O    -5.304000000     3.744000000     1.250000000
H    -5.216000000     2.809000000     1.067000000
H    -5.270000000     3.805000000     2.205000000
O    -4.253000000     0.852000000     8.168000000
H    -4.025000000     0.189000000     7.516000000
H    -4.194000000     0.393000000     9.006000000
O    -5.474000000    -2.676000000     5.313000000
H    -5.721000000    -2.232000000     6.124000000
H    -5.761000000    -2.084000000     4.618000000
O    -5.499000000    -5.545000000     5.625000000
H    -4.980000000    -4.761000000     5.447000000
H    -5.271000000    -5.786000000     6.523000000
O    -5.518000000     1.703000000    -1.151000000
H    -4.814000000     2.231000000    -1.525000000
H    -6.282000000     2.280000000    -1.161000000
O    -6.184000000    -0.052000000     4.326000000
H    -7.069000000    -0.191000000     3.987000000
H    -5.609000000    -0.362000000     3.627000000
O    -3.287000000    -0.374000000     5.843000000
H    -3.320000000     0.113000000     5.020000000
H    -2.896000000    -1.216000000     5.607000000
O    -4.526000000     3.314000000     6.553000000
H    -4.754000000     2.499000000     7.001000000
H    -4.312000000     3.045000000     5.659000000
O    -5.113000000    -1.997000000     8.138000000
H    -4.598000000    -2.797000000     8.239000000
H    -5.571000000    -1.899000000     8.972000000
O    -9.445000000    -2.602000000     3.000000000
H    -9.673000000    -2.606000000     3.930000000
H    -8.519000000    -2.845000000     2.979000000
O    -9.328000000     1.582000000     5.023000000
H    -8.681000000     2.287000000     5.009000000
H    -9.139000000     1.068000000     4.238000000
O    -6.519000000    -2.608000000     2.526000000
H    -5.637000000    -2.254000000     2.414000000
H    -6.476000000    -3.484000000     2.142000000
O    -6.842000000    -0.157000000     7.036000000
H    -6.689000000     0.112000000     6.130000000
H    -6.111000000    -0.742000000     7.238000000
O    -8.037000000     3.779000000     3.656000000
H    -8.925000000     3.799000000     3.300000000
H    -7.500000000     3.437000000     2.942000000
O    -6.520000000    -0.170000000     0.662000000
H    -5.694000000    -0.468000000     1.044000000
H    -6.259000000     0.447000000    -0.022000000
