215
-1428.55701
C    -2.962000000    -0.632000000    -4.388000000
H    -2.725000000    -1.689000000    -4.484000000
C    -2.038000000     0.393000000    -4.200000000
C    -2.455000000     1.706000000    -4.123000000
H    -1.637000000     2.420000000    -4.073000000
C    -0.527000000     0.001000000    -4.185000000
O    -0.322000000    -1.318000000    -4.832000000
H    -0.096000000    -0.024000000    -3.173000000
O     0.268000000     0.968000000    -4.840000000
C     1.418000000     1.419000000    -4.213000000
C     1.411000000     2.527000000    -3.416000000
H     0.520000000     3.139000000    -3.300000000
C     2.495000000     2.876000000    -2.610000000
O     2.364000000     3.972000000    -1.781000000
C     3.620000000     2.052000000    -2.560000000
C     4.795000000     2.215000000    -1.580000000
H     5.708000000     1.825000000    -2.036000000
C     4.569000000     1.639000000    -0.211000000
C     5.003000000     0.356000000     0.006000000
H     5.499000000    -0.177000000    -0.801000000
H     4.968000000     3.279000000    -1.405000000
C     3.609000000     0.884000000    -3.394000000
H     4.408000000     0.159000000    -3.261000000
C     2.506000000     0.516000000    -4.216000000
C     2.499000000    -0.915000000    -4.915000000
H     3.532000000    -1.207000000    -5.112000000
H     1.965000000    -0.935000000    -5.867000000
C     1.843000000    -2.095000000    -4.029000000
C     2.525000000    -2.927000000    -3.155000000
H     3.603000000    -2.816000000    -3.069000000
C     0.406000000    -2.178000000    -4.062000000
C    -0.297000000    -3.105000000    -3.309000000
H    -1.379000000    -3.186000000    -3.379000000
C     0.428000000    -3.948000000    -2.499000000
O    -0.253000000    -4.743000000    -1.632000000
C    -0.435000000    -4.286000000    -0.233000000
C    -1.863000000    -4.628000000     0.212000000
C    -2.188000000    -4.655000000     1.602000000
H    -1.328000000    -4.517000000     2.252000000
C    -2.878000000    -4.547000000    -0.743000000
H    -2.644000000    -4.302000000    -1.776000000
O     0.493000000    -4.920000000     0.674000000
H    -0.339000000    -3.194000000    -0.154000000
C     1.791000000    -3.817000000    -2.409000000
C     2.505000000    -4.796000000    -1.440000000
H     3.519000000    -4.997000000    -1.793000000
H     1.960000000    -5.741000000    -1.437000000
C     2.658000000    -4.122000000    -0.090000000
C     3.751000000    -3.167000000     0.146000000
H     4.458000000    -3.034000000    -0.669000000
C     1.693000000    -4.256000000     0.886000000
C     1.744000000    -3.524000000     2.085000000
H     0.984000000    -3.669000000     2.848000000
C     2.877000000    -2.713000000     2.447000000
O     2.936000000    -1.987000000     3.652000000
C     2.607000000    -0.582000000     3.516000000
C     1.777000000    -0.123000000     4.650000000
C     0.720000000    -1.019000000     4.979000000
H     0.685000000    -1.968000000     4.451000000
C     1.779000000     1.204000000     5.163000000
H     2.537000000     1.940000000     4.908000000
O     3.847000000     0.094000000     3.422000000
H     2.007000000    -0.597000000     2.595000000
C     3.882000000    -2.527000000     1.412000000
C     5.109000000    -1.601000000     1.568000000
H     5.987000000    -1.892000000     0.987000000
H     5.607000000    -1.710000000     2.534000000
C     4.797000000    -0.195000000     1.268000000
C     4.173000000     0.574000000     2.226000000
C     3.876000000     1.894000000     2.019000000
H     3.369000000     2.480000000     2.782000000
C     3.927000000     2.425000000     0.747000000
O     3.257000000     3.602000000     0.438000000
C     2.025000000     3.655000000    -0.390000000
H     1.610000000     2.637000000    -0.374000000
C     0.968000000     4.568000000     0.199000000
C    -0.105000000     4.873000000    -0.545000000
H    -0.194000000     4.564000000    -1.583000000
C     1.155000000     5.139000000     1.456000000
H     1.880000000     4.925000000     2.237000000
C     0.242000000     6.057000000     1.941000000
O     0.184000000     6.410000000     3.299000000
C    -0.934000000     6.323000000     1.210000000
H    -1.609000000     7.058000000     1.640000000
C    -1.148000000     5.718000000    -0.042000000
O    -2.227000000     6.156000000    -0.817000000
C    -2.325000000     5.871000000    -2.151000000
C    -3.136000000     4.872000000    -2.483000000
H    -3.660000000     4.342000000    -1.692000000
C    -1.771000000     6.648000000    -3.138000000
H    -1.042000000     7.398000000    -2.839000000
C    -1.917000000     6.303000000    -4.461000000
H    -1.474000000     6.926000000    -5.235000000
C    -2.812000000     5.317000000    -4.828000000
H    -2.980000000     5.135000000    -5.886000000
C    -3.328000000     4.487000000    -3.862000000
O    -4.161000000     3.442000000    -4.236000000
C    -3.753000000     2.070000000    -4.168000000
C    -4.698000000     1.063000000    -4.295000000
H    -5.741000000     1.343000000    -4.417000000
C    -4.293000000    -0.315000000    -4.387000000
O    -5.307000000    -1.248000000    -4.571000000
C    -5.270000000    -2.564000000    -4.180000000
C    -5.160000000    -2.980000000    -2.837000000
H    -5.055000000    -2.257000000    -2.032000000
C    -5.595000000    -3.571000000    -5.110000000
H    -5.684000000    -3.315000000    -6.163000000
C    -5.869000000    -4.877000000    -4.790000000
H    -6.126000000    -5.635000000    -5.526000000
C    -5.737000000    -5.253000000    -3.481000000
H    -6.000000000    -6.277000000    -3.229000000
C    -5.431000000    -4.323000000    -2.494000000
O    -5.265000000    -4.811000000    -1.208000000
C    -4.190000000    -4.682000000    -0.354000000
C    -4.524000000    -4.661000000     1.045000000
H    -5.557000000    -4.520000000     1.352000000
C    -3.537000000    -4.662000000     2.009000000
O    -3.821000000    -4.503000000     3.359000000
C    -2.848000000    -4.173000000     4.340000000
C    -2.504000000    -2.855000000     4.653000000
H    -2.967000000    -2.024000000     4.129000000
C    -2.383000000    -5.260000000     5.154000000
H    -2.648000000    -6.310000000     5.050000000
C    -1.582000000    -4.976000000     6.286000000
H    -1.148000000    -5.796000000     6.852000000
C    -1.151000000    -3.683000000     6.518000000
H    -0.455000000    -3.492000000     7.331000000
C    -1.624000000    -2.616000000     5.719000000
O    -1.409000000    -1.365000000     6.111000000
C    -0.381000000    -0.568000000     5.682000000
C    -0.367000000     0.720000000     6.188000000
H    -1.158000000     1.093000000     6.834000000
C     0.763000000     1.574000000     6.005000000
O     0.768000000     2.855000000     6.473000000
C     1.219000000     3.991000000     5.851000000
C     2.460000000     4.583000000     6.265000000
H     2.982000000     4.059000000     7.062000000
C     3.028000000     5.666000000     5.607000000
H     3.977000000     6.142000000     5.840000000
C     2.242000000     6.327000000     4.719000000
H     2.532000000     7.254000000     4.231000000
C     0.975000000     5.796000000     4.304000000
C     0.532000000     4.581000000     4.809000000
H    -0.395000000     4.110000000     4.492000000
C    -2.495000000    -0.494000000     1.297000000
H    -3.467000000    -0.979000000     1.289000000
C    -1.525000000    -0.997000000     0.408000000
H    -1.814000000    -1.618000000    -0.436000000
C    -0.224000000    -0.499000000     0.559000000
H     0.586000000    -0.802000000    -0.041000000
C     0.080000000     0.533000000     1.517000000
H     1.092000000     0.925000000     1.457000000
C    -0.889000000     0.959000000     2.420000000
H    -0.664000000     1.734000000     3.148000000
C    -2.187000000     0.360000000     2.371000000
C    -3.239000000     0.811000000     3.227000000
O    -2.965000000     1.575000000     4.086000000
O    -4.360000000     0.384000000     3.151000000
O    -6.406000000     4.039000000     5.680000000
H    -5.816000000     4.025000000     6.434000000
H    -6.328000000     3.164000000     5.298000000
O    -3.339000000     3.409000000     6.143000000
H    -3.347000000     2.639000000     6.711000000
H    -3.321000000     3.053000000     5.255000000
O    -7.564000000    -2.037000000     0.875000000
H    -8.434000000    -1.640000000     0.901000000
H    -6.970000000    -1.328000000     1.122000000
O    -8.175000000     2.462000000     0.791000000
H    -7.860000000     1.568000000     0.928000000
H    -7.976000000     2.648000000    -0.126000000
O    -0.891000000    -0.880000000     8.885000000
H    -0.912000000    -0.739000000     7.939000000
H     0.037000000    -0.999000000     9.089000000
O    -5.171000000     2.209000000    -0.612000000
H    -4.214000000     2.200000000    -0.600000000
H    -5.401000000     3.136000000    -0.675000000
O    -2.294000000     3.803000000     2.319000000
H    -3.152000000     4.164000000     2.095000000
H    -2.491000000     3.015000000     2.826000000
O    -8.825000000     0.211000000     3.980000000
H    -8.947000000    -0.579000000     4.506000000
H    -8.829000000    -0.101000000     3.075000000
O    -6.342000000     1.705000000     4.401000000
H    -5.553000000     1.199000000     4.205000000
H    -7.064000000     1.133000000     4.141000000
O    -2.444000000     2.388000000    -0.230000000
H    -1.910000000     1.597000000    -0.298000000
H    -1.978000000     2.938000000     0.400000000
O    -5.494000000     3.773000000     2.070000000
H    -5.720000000     3.289000000     1.276000000
H    -5.747000000     3.190000000     2.787000000
O    -1.420000000     3.780000000     8.352000000
H    -1.300000000     3.849000000     7.405000000
H    -1.149000000     4.633000000     8.690000000
O    -4.534000000     0.610000000     9.156000000
H    -5.378000000     0.161000000     9.195000000
H    -4.297000000     0.594000000     8.228000000
O    -3.751000000     6.138000000     6.390000000
H    -3.702000000     5.206000000     6.178000000
H    -4.385000000     6.188000000     7.105000000
O    -3.819000000     0.461000000     6.408000000
H    -3.703000000    -0.486000000     6.332000000
H    -3.453000000     0.813000000     5.596000000
O    -5.446000000    -1.734000000     4.140000000
H    -5.028000000    -0.977000000     3.730000000
H    -6.256000000    -1.857000000     3.646000000
O    -3.541000000     6.145000000     3.179000000
H    -3.705000000     6.011000000     4.112000000
H    -2.771000000     5.608000000     2.992000000
O    -5.646000000    -3.506000000     6.103000000
H    -5.460000000    -2.903000000     5.383000000
H    -4.972000000    -3.316000000     6.755000000
O    -6.150000000     0.391000000     1.148000000
H    -5.630000000     0.706000000     1.888000000
H    -5.713000000     0.753000000     0.377000000
