215
-1458.88732
C    -3.667000000    -1.182000000    -3.941000000
H    -3.419000000    -2.238000000    -3.873000000
C    -2.676000000    -0.255000000    -4.121000000
C    -3.019000000     1.059000000    -4.074000000
H    -2.209000000     1.769000000    -4.216000000
C    -1.114000000    -0.635000000    -4.094000000
O    -0.974000000    -1.991000000    -4.609000000
H    -0.682000000    -0.495000000    -3.093000000
O    -0.308000000     0.293000000    -4.907000000
C     0.850000000     0.798000000    -4.348000000
C     0.880000000     1.955000000    -3.581000000
H    -0.004000000     2.578000000    -3.473000000
C     2.092000000     2.401000000    -3.085000000
O     2.083000000     3.550000000    -2.354000000
C     3.260000000     1.571000000    -3.123000000
C     4.493000000     1.997000000    -2.393000000
H     5.340000000     1.406000000    -2.747000000
C     4.394000000     1.736000000    -0.855000000
C     5.039000000     0.661000000    -0.317000000
H     5.593000000    -0.059000000    -0.914000000
H     4.770000000     3.036000000    -2.582000000
C     3.127000000     0.390000000    -3.719000000
H     3.950000000    -0.317000000    -3.781000000
C     1.912000000    -0.056000000    -4.291000000
C     1.953000000    -1.496000000    -4.948000000
H     2.924000000    -1.675000000    -5.413000000
H     1.183000000    -1.323000000    -5.702000000
C     1.372000000    -2.510000000    -3.991000000
C     2.313000000    -3.085000000    -3.100000000
H     3.346000000    -2.813000000    -3.303000000
C    -0.015000000    -2.711000000    -3.885000000
C    -0.464000000    -3.585000000    -2.905000000
H    -1.515000000    -3.856000000    -2.844000000
C     0.468000000    -4.164000000    -2.030000000
O    -0.032000000    -4.931000000    -1.048000000
C    -0.112000000    -4.307000000     0.287000000
C    -1.407000000    -4.482000000     0.943000000
C    -1.643000000    -4.040000000     2.188000000
H    -0.815000000    -3.656000000     2.778000000
C    -2.521000000    -4.835000000     0.084000000
H    -2.484000000    -5.044000000    -0.982000000
O     1.040000000    -4.662000000     1.124000000
H    -0.179000000    -3.213000000     0.199000000
C     1.857000000    -3.903000000    -2.105000000
C     2.794000000    -4.539000000    -1.057000000
H     3.811000000    -4.637000000    -1.442000000
H     2.555000000    -5.566000000    -0.773000000
C     2.976000000    -3.652000000     0.164000000
C     4.013000000    -2.727000000     0.236000000
H     4.663000000    -2.521000000    -0.610000000
C     2.112000000    -3.774000000     1.222000000
C     2.172000000    -2.946000000     2.337000000
H     1.514000000    -3.057000000     3.195000000
C     3.235000000    -2.001000000     2.439000000
O     3.426000000    -1.287000000     3.568000000
C     2.908000000     0.039000000     3.446000000
C     2.082000000     0.472000000     4.648000000
C     1.349000000    -0.522000000     5.338000000
H     1.595000000    -1.567000000     5.171000000
C     1.751000000     1.832000000     4.824000000
H     2.195000000     2.551000000     4.140000000
O     3.946000000     0.929000000     3.268000000
H     2.232000000     0.123000000     2.582000000
C     4.172000000    -1.922000000     1.377000000
C     5.416000000    -1.035000000     1.529000000
H     6.242000000    -1.469000000     0.962000000
H     5.781000000    -0.990000000     2.557000000
C     4.918000000     0.392000000     1.084000000
C     4.270000000     1.256000000     1.967000000
C     3.708000000     2.430000000     1.423000000
H     3.123000000     3.061000000     2.088000000
C     3.819000000     2.662000000     0.049000000
O     3.105000000     3.731000000    -0.415000000
C     1.848000000     3.507000000    -0.962000000
H     1.575000000     2.511000000    -0.584000000
C     0.858000000     4.548000000    -0.592000000
C    -0.208000000     4.910000000    -1.437000000
H    -0.331000000     4.545000000    -2.454000000
C     0.894000000     5.099000000     0.715000000
H     1.739000000     4.797000000     1.328000000
C     0.053000000     6.170000000     1.011000000
O     0.142000000     6.890000000     2.273000000
C    -0.905000000     6.571000000     0.110000000
H    -1.537000000     7.419000000     0.361000000
C    -1.094000000     5.947000000    -1.094000000
O    -2.085000000     6.450000000    -1.978000000
C    -2.529000000     5.693000000    -3.080000000
C    -3.387000000     4.609000000    -2.887000000
H    -3.481000000     4.175000000    -1.895000000
C    -2.262000000     6.092000000    -4.396000000
H    -1.594000000     6.929000000    -4.583000000
C    -2.807000000     5.312000000    -5.433000000
H    -2.517000000     5.471000000    -6.468000000
C    -3.596000000     4.201000000    -5.205000000
H    -4.000000000     3.545000000    -5.972000000
C    -4.000000000     3.921000000    -3.931000000
O    -4.726000000     2.798000000    -3.619000000
C    -4.318000000     1.487000000    -3.792000000
C    -5.296000000     0.513000000    -3.558000000
H    -6.262000000     0.903000000    -3.249000000
C    -4.944000000    -0.808000000    -3.535000000
O    -5.841000000    -1.760000000    -3.188000000
C    -5.592000000    -3.119000000    -2.985000000
C    -5.413000000    -3.569000000    -1.661000000
H    -5.515000000    -2.929000000    -0.788000000
C    -5.468000000    -3.953000000    -4.079000000
H    -5.576000000    -3.625000000    -5.109000000
C    -5.406000000    -5.323000000    -3.847000000
H    -5.484000000    -5.933000000    -4.743000000
C    -5.175000000    -5.824000000    -2.596000000
H    -4.941000000    -6.885000000    -2.551000000
C    -5.219000000    -4.963000000    -1.485000000
O    -4.899000000    -5.401000000    -0.200000000
C    -3.845000000    -4.907000000     0.599000000
C    -4.006000000    -4.637000000     1.971000000
H    -4.989000000    -4.743000000     2.422000000
C    -2.931000000    -4.148000000     2.791000000
O    -3.136000000    -3.918000000     4.124000000
C    -2.084000000    -3.783000000     4.988000000
C    -1.817000000    -2.566000000     5.587000000
H    -2.258000000    -1.615000000     5.299000000
C    -1.281000000    -4.908000000     5.279000000
H    -1.524000000    -5.851000000     4.798000000
C    -0.145000000    -4.691000000     6.056000000
H     0.558000000    -5.514000000     6.154000000
C     0.120000000    -3.473000000     6.664000000
H     1.032000000    -3.315000000     7.235000000
C    -0.697000000    -2.383000000     6.431000000
O    -0.360000000    -1.143000000     6.964000000
C     0.378000000    -0.170000000     6.328000000
C     0.086000000     1.225000000     6.440000000
H    -0.657000000     1.483000000     7.190000000
C     0.764000000     2.248000000     5.736000000
O     0.317000000     3.580000000     5.801000000
C     0.814000000     4.683000000     5.203000000
C     1.887000000     5.331000000     5.785000000
H     2.334000000     4.954000000     6.701000000
C     2.365000000     6.450000000     5.123000000
H     3.195000000     6.893000000     5.667000000
C     1.766000000     7.025000000     3.972000000
H     2.170000000     7.905000000     3.477000000
C     0.775000000     6.336000000     3.468000000
C     0.267000000     5.128000000     4.019000000
H    -0.605000000     4.616000000     3.621000000
C    -2.267000000    -0.505000000     0.775000000
H    -3.099000000    -1.148000000     0.501000000
C    -1.207000000    -0.400000000    -0.160000000
H    -1.348000000    -0.850000000    -1.139000000
C     0.001000000     0.271000000     0.236000000
H     0.732000000     0.326000000    -0.544000000
C     0.012000000     0.951000000     1.478000000
H     0.839000000     1.618000000     1.709000000
C    -1.022000000     0.855000000     2.381000000
H    -1.059000000     1.408000000     3.317000000
C    -2.235000000     0.148000000     2.069000000
C    -3.324000000     0.026000000     3.132000000
O    -3.500000000     0.845000000     3.963000000
O    -4.213000000    -0.824000000     2.917000000
O    -4.176000000     2.597000000     5.691000000
H    -5.122000000     2.456000000     5.713000000
H    -3.828000000     1.817000000     5.257000000
O    -7.965000000    -2.066000000     1.131000000
H    -7.343000000    -1.410000000     0.813000000
H    -8.326000000    -1.685000000     1.931000000
O    -7.120000000     2.007000000     5.715000000
H    -6.882000000     1.586000000     4.888000000
H    -7.871000000     1.506000000     6.032000000
O    -4.693000000     2.008000000    -0.420000000
H    -3.818000000     1.695000000    -0.647000000
H    -4.541000000     2.839000000     0.031000000
O    -2.774000000     3.431000000     2.774000000
H    -2.888000000     4.011000000     3.527000000
H    -3.138000000     2.593000000     3.060000000
O    -9.065000000    -0.671000000     3.149000000
H    -9.300000000     0.217000000     3.418000000
H    -9.050000000    -1.173000000     3.964000000
O    -6.277000000     0.947000000     3.078000000
H    -5.515000000     0.562000000     3.510000000
H    -6.684000000     0.216000000     2.612000000
O    -1.829000000     2.551000000    -0.198000000
H    -1.764000000     1.622000000     0.025000000
H    -1.752000000     3.004000000     0.642000000
O    -7.057000000     3.205000000     1.631000000
H    -6.825000000     3.105000000     0.707000000
H    -6.600000000     2.488000000     2.071000000
O    -4.432000000     4.490000000     0.980000000
H    -3.636000000     4.343000000     1.491000000
H    -4.670000000     5.399000000     1.163000000
O    -2.639000000     3.694000000     7.784000000
H    -3.166000000     3.347000000     7.064000000
H    -3.081000000     3.385000000     8.575000000
O    -7.087000000    -5.470000000     4.369000000
H    -6.610000000    -4.705000000     4.047000000
H    -6.815000000    -6.182000000     3.790000000
O    -4.907000000    -3.663000000     6.640000000
H    -4.923000000    -2.728000000     6.436000000
H    -4.440000000    -4.061000000     5.906000000
O    -4.961000000    -0.615000000     5.818000000
H    -5.904000000    -0.766000000     5.750000000
H    -4.724000000    -0.207000000     4.985000000
O    -6.084000000    -2.860000000     3.507000000
H    -5.347000000    -2.280000000     3.699000000
H    -6.247000000    -2.738000000     2.571000000
O    -7.120000000     2.665000000    -1.503000000
H    -6.236000000     2.344000000    -1.322000000
H    -6.986000000     3.425000000    -2.069000000
O    -3.775000000     5.245000000     4.882000000
H    -4.156000000     5.810000000     5.555000000
H    -4.057000000     4.363000000     5.122000000
O    -8.276000000    -2.421000000     4.981000000
H    -7.678000000    -2.783000000     4.327000000
H    -7.944000000    -2.749000000     5.817000000
O    -5.655000000    -0.378000000     0.703000000
H    -5.090000000    -0.421000000     1.474000000
H    -5.434000000     0.456000000     0.290000000
