215
-1449.08756
C    -3.539000000    -0.889000000    -4.068000000
H    -3.267000000    -1.932000000    -3.933000000
C    -2.575000000     0.129000000    -4.265000000
C    -3.036000000     1.441000000    -4.228000000
H    -2.245000000     2.183000000    -4.306000000
C    -1.108000000    -0.150000000    -4.199000000
O    -0.824000000    -1.475000000    -4.627000000
H    -0.800000000     0.080000000    -3.169000000
O    -0.383000000     0.802000000    -5.020000000
C     0.900000000     1.255000000    -4.635000000
C     0.932000000     2.508000000    -4.031000000
H     0.085000000     3.190000000    -4.023000000
C     2.085000000     2.898000000    -3.312000000
O     1.851000000     3.978000000    -2.458000000
C     3.228000000     2.087000000    -3.196000000
C     4.502000000     2.304000000    -2.432000000
H     5.252000000     1.700000000    -2.947000000
C     4.379000000     1.888000000    -0.998000000
C     4.916000000     0.697000000    -0.485000000
H     5.359000000    -0.047000000    -1.143000000
H     4.883000000     3.323000000    -2.532000000
C     3.140000000     0.858000000    -3.910000000
H     4.020000000     0.219000000    -3.901000000
C     1.990000000     0.437000000    -4.577000000
C     1.903000000    -0.964000000    -5.088000000
H     2.898000000    -1.314000000    -5.370000000
H     1.510000000    -1.023000000    -6.105000000
C     1.420000000    -1.989000000    -4.093000000
C     2.407000000    -2.726000000    -3.331000000
H     3.443000000    -2.398000000    -3.323000000
C     0.054000000    -2.262000000    -3.971000000
C    -0.353000000    -3.196000000    -3.034000000
H    -1.414000000    -3.384000000    -2.893000000
C     0.580000000    -3.903000000    -2.306000000
O     0.149000000    -4.779000000    -1.398000000
C     0.009000000    -4.282000000    -0.052000000
C    -1.330000000    -4.500000000     0.605000000
C    -1.463000000    -4.291000000     1.960000000
H    -0.556000000    -3.950000000     2.452000000
C    -2.492000000    -4.668000000    -0.214000000
H    -2.486000000    -4.829000000    -1.289000000
O     1.090000000    -4.848000000     0.693000000
H     0.116000000    -3.191000000    -0.138000000
C     1.954000000    -3.746000000    -2.475000000
C     2.950000000    -4.416000000    -1.550000000
H     3.951000000    -4.431000000    -1.986000000
H     2.630000000    -5.445000000    -1.374000000
C     3.057000000    -3.746000000    -0.214000000
C     4.094000000    -2.833000000     0.014000000
H     4.762000000    -2.627000000    -0.818000000
C     2.156000000    -4.050000000     0.835000000
C     2.260000000    -3.329000000     2.044000000
H     1.538000000    -3.517000000     2.835000000
C     3.307000000    -2.461000000     2.271000000
O     3.327000000    -1.659000000     3.366000000
C     2.752000000    -0.293000000     3.328000000
C     1.950000000    -0.017000000     4.588000000
C     1.381000000    -1.006000000     5.338000000
H     1.711000000    -2.036000000     5.228000000
C     1.670000000     1.274000000     4.814000000
H     2.075000000     2.055000000     4.177000000
O     3.730000000     0.765000000     3.019000000
H     2.031000000    -0.293000000     2.497000000
C     4.205000000    -2.150000000     1.184000000
C     5.274000000    -1.082000000     1.336000000
H     6.142000000    -1.300000000     0.710000000
H     5.640000000    -0.829000000     2.334000000
C     4.764000000     0.292000000     0.861000000
C     4.099000000     1.143000000     1.753000000
C     3.666000000     2.368000000     1.279000000
H     3.043000000     2.985000000     1.921000000
C     3.826000000     2.732000000    -0.042000000
O     3.086000000     3.877000000    -0.428000000
C     1.805000000     3.798000000    -1.030000000
H     1.501000000     2.768000000    -0.792000000
C     0.702000000     4.561000000    -0.251000000
C    -0.541000000     4.758000000    -0.823000000
H    -0.762000000     4.272000000    -1.770000000
C     0.929000000     5.260000000     0.986000000
H     1.928000000     5.321000000     1.410000000
C     0.012000000     5.955000000     1.771000000
O     0.234000000     6.542000000     3.009000000
C    -1.194000000     6.221000000     1.080000000
H    -1.946000000     6.866000000     1.528000000
C    -1.535000000     5.574000000    -0.151000000
O    -2.729000000     5.820000000    -0.741000000
C    -2.963000000     5.535000000    -2.095000000
C    -3.747000000     4.457000000    -2.418000000
H    -4.026000000     3.748000000    -1.642000000
C    -2.532000000     6.470000000    -3.077000000
H    -1.985000000     7.357000000    -2.767000000
C    -2.868000000     6.208000000    -4.367000000
H    -2.540000000     6.887000000    -5.151000000
C    -3.626000000     5.039000000    -4.728000000
H    -4.067000000     4.964000000    -5.719000000
C    -4.043000000     4.166000000    -3.762000000
O    -4.825000000     3.109000000    -4.100000000
C    -4.387000000     1.796000000    -4.132000000
C    -5.295000000     0.738000000    -4.116000000
H    -6.368000000     0.887000000    -4.211000000
C    -4.910000000    -0.594000000    -3.957000000
O    -5.861000000    -1.543000000    -3.586000000
C    -5.585000000    -2.933000000    -3.287000000
C    -5.291000000    -3.273000000    -1.960000000
H    -5.122000000    -2.472000000    -1.245000000
C    -5.737000000    -3.851000000    -4.282000000
H    -6.114000000    -3.540000000    -5.253000000
C    -5.632000000    -5.205000000    -3.975000000
H    -5.670000000    -5.935000000    -4.780000000
C    -5.271000000    -5.566000000    -2.680000000
H    -5.213000000    -6.583000000    -2.298000000
C    -5.054000000    -4.626000000    -1.649000000
O    -4.838000000    -4.961000000    -0.304000000
C    -3.708000000    -4.689000000     0.354000000
C    -3.820000000    -4.415000000     1.710000000
H    -4.799000000    -4.418000000     2.182000000
C    -2.693000000    -4.203000000     2.542000000
O    -2.891000000    -4.291000000     3.900000000
C    -1.830000000    -4.217000000     4.843000000
C    -1.509000000    -3.028000000     5.459000000
H    -2.064000000    -2.108000000     5.289000000
C    -1.101000000    -5.349000000     5.162000000
H    -1.451000000    -6.304000000     4.780000000
C     0.025000000    -5.259000000     6.040000000
H     0.614000000    -6.152000000     6.233000000
C     0.277000000    -4.092000000     6.705000000
H     1.073000000    -3.998000000     7.439000000
C    -0.467000000    -2.987000000     6.385000000
O    -0.196000000    -1.732000000     6.987000000
C     0.458000000    -0.701000000     6.332000000
C     0.145000000     0.621000000     6.516000000
H    -0.566000000     0.891000000     7.293000000
C     0.713000000     1.615000000     5.749000000
O     0.188000000     2.845000000     5.953000000
C     0.794000000     4.039000000     5.579000000
C     1.953000000     4.502000000     6.205000000
H     2.320000000     4.038000000     7.116000000
C     2.574000000     5.719000000     5.729000000
H     3.511000000     6.071000000     6.154000000
C     2.006000000     6.392000000     4.654000000
H     2.388000000     7.352000000     4.318000000
C     0.935000000     5.862000000     3.967000000
C     0.396000000     4.633000000     4.384000000
H    -0.420000000     4.155000000     3.849000000
C    -2.291000000    -0.970000000     1.242000000
H    -3.121000000    -1.673000000     1.231000000
C    -1.554000000    -0.856000000     0.060000000
H    -1.854000000    -1.345000000    -0.863000000
C    -0.539000000     0.022000000    -0.051000000
H     0.040000000     0.043000000    -0.939000000
C    -0.147000000     0.768000000     1.092000000
H     0.699000000     1.441000000     0.977000000
C    -0.878000000     0.670000000     2.282000000
H    -0.602000000     1.280000000     3.138000000
C    -2.006000000    -0.175000000     2.380000000
C    -2.812000000    -0.137000000     3.651000000
O    -2.535000000     0.565000000     4.604000000
O    -3.797000000    -0.892000000     3.694000000
O    -2.685000000     3.153000000     5.502000000
H    -3.616000000     3.259000000     5.308000000
H    -2.525000000     2.215000000     5.398000000
O    -6.317000000     4.284000000     4.100000000
H    -6.073000000     4.812000000     3.339000000
H    -6.684000000     4.914000000     4.720000000
O    -4.544000000    -0.545000000     9.370000000
H    -4.150000000    -0.011000000     8.680000000
H    -4.130000000    -1.403000000     9.275000000
O    -5.457000000     2.609000000     5.874000000
H    -5.771000000     3.072000000     5.097000000
H    -6.225000000     2.139000000     6.200000000
O    -4.437000000     0.955000000    -0.702000000
H    -3.680000000     1.318000000    -0.241000000
H    -4.106000000     0.743000000    -1.575000000
O    -2.770000000     4.210000000     2.452000000
H    -2.558000000     4.993000000     2.960000000
H    -2.969000000     3.545000000     3.111000000
O    -3.593000000    -5.339000000     7.243000000
H    -3.007000000    -6.068000000     7.040000000
H    -3.606000000    -4.812000000     6.444000000
O    -6.514000000     0.678000000     3.828000000
H    -5.723000000     0.178000000     3.628000000
H    -6.627000000     0.581000000     4.773000000
O    -6.604000000    -4.092000000     6.877000000
H    -6.795000000    -4.608000000     6.093000000
H    -5.964000000    -3.442000000     6.585000000
O    -7.442000000     0.693000000     6.399000000
H    -7.554000000    -0.049000000     6.994000000
H    -8.224000000     1.228000000     6.536000000
O    -2.590000000     2.413000000     0.387000000
H    -1.864000000     1.952000000     0.808000000
H    -2.701000000     3.209000000     0.906000000
O    -5.301000000     4.860000000     1.327000000
H    -4.710000000     4.114000000     1.226000000
H    -4.729000000     5.588000000     1.568000000
O    -1.731000000     4.886000000     7.274000000
H    -1.734000000     4.365000000     6.471000000
H    -1.143000000     4.413000000     7.863000000
O    -4.519000000    -2.400000000     5.936000000
H    -4.173000000    -1.874000000     6.657000000
H    -4.207000000    -1.959000000     5.147000000
O    -3.565000000     0.199000000     6.927000000
H    -4.188000000     0.805000000     6.525000000
H    -2.955000000    -0.019000000     6.224000000
O    -6.064000000    -2.394000000     2.916000000
H    -5.217000000    -2.079000000     3.234000000
H    -6.018000000    -2.288000000     1.966000000
O    -7.003000000     1.697000000    -0.663000000
H    -6.122000000     1.356000000    -0.507000000
H    -6.866000000     2.473000000    -1.207000000
O    -8.688000000    -2.156000000     4.368000000
H    -7.751000000    -2.222000000     4.184000000
H    -9.084000000    -1.947000000     3.522000000
O    -5.926000000    -0.700000000     0.753000000
H    -6.306000000    -0.239000000     1.501000000
H    -5.335000000    -0.061000000     0.354000000
