215
-1445.65467
C    -4.047000000    -0.289000000    -2.349000000
H    -3.463000000    -1.200000000    -2.461000000
C    -3.600000000     0.907000000    -2.820000000
C    -4.213000000     2.099000000    -2.413000000
H    -3.705000000     3.039000000    -2.615000000
C    -2.251000000     0.953000000    -3.554000000
O    -2.044000000    -0.107000000    -4.538000000
H    -1.587000000     0.720000000    -2.709000000
O    -1.873000000     2.249000000    -4.058000000
C    -0.646000000     2.638000000    -3.641000000
C    -0.558000000     3.575000000    -2.638000000
H    -1.509000000     3.902000000    -2.225000000
C     0.686000000     3.941000000    -2.150000000
O     0.735000000     4.697000000    -1.039000000
C     1.891000000     3.426000000    -2.696000000
C     3.286000000     3.755000000    -2.142000000
H     4.096000000     3.853000000    -2.868000000
C     3.657000000     2.920000000    -1.016000000
C     4.301000000     1.714000000    -1.290000000
H     4.546000000     1.357000000    -2.287000000
H     3.265000000     4.770000000    -1.738000000
C     1.800000000     2.529000000    -3.773000000
H     2.685000000     2.084000000    -4.222000000
C     0.546000000     2.180000000    -4.254000000
C     0.469000000     1.224000000    -5.460000000
H     1.448000000     1.272000000    -5.942000000
H    -0.320000000     1.425000000    -6.187000000
C     0.353000000    -0.232000000    -4.947000000
C     1.555000000    -0.907000000    -4.655000000
H     2.502000000    -0.396000000    -4.811000000
C    -0.869000000    -0.826000000    -4.635000000
C    -0.854000000    -2.056000000    -4.087000000
H    -1.848000000    -2.443000000    -3.878000000
C     0.335000000    -2.794000000    -3.908000000
O     0.183000000    -3.967000000    -3.185000000
C     0.497000000    -3.977000000    -1.812000000
C    -0.480000000    -4.811000000    -1.031000000
C    -0.209000000    -5.198000000     0.318000000
H     0.725000000    -4.895000000     0.784000000
C    -1.721000000    -5.066000000    -1.568000000
H    -1.962000000    -4.635000000    -2.537000000
O     1.880000000    -4.365000000    -1.563000000
H     0.270000000    -2.989000000    -1.386000000
C     1.577000000    -2.224000000    -4.188000000
C     2.858000000    -2.882000000    -3.878000000
H     3.700000000    -2.623000000    -4.524000000
H     2.775000000    -3.957000000    -4.049000000
C     3.347000000    -2.689000000    -2.455000000
C     4.290000000    -1.676000000    -2.123000000
H     4.733000000    -1.113000000    -2.940000000
C     2.785000000    -3.388000000    -1.369000000
C     3.110000000    -3.141000000    -0.070000000
H     2.468000000    -3.690000000     0.614000000
C     4.098000000    -2.175000000     0.242000000
O     4.341000000    -1.878000000     1.668000000
C     3.811000000    -0.654000000     2.227000000
C     3.414000000    -0.905000000     3.664000000
C     2.573000000    -2.008000000     3.842000000
H     2.402000000    -2.712000000     3.032000000
C     3.353000000     0.036000000     4.670000000
H     3.766000000     1.032000000     4.525000000
O     4.710000000     0.458000000     2.093000000
H     2.924000000    -0.282000000     1.693000000
C     4.678000000    -1.459000000    -0.773000000
C     5.573000000    -0.317000000    -0.514000000
H     6.174000000    -0.109000000    -1.402000000
H     6.248000000    -0.513000000     0.323000000
C     4.724000000     0.915000000    -0.254000000
C     4.500000000     1.351000000     1.020000000
C     3.791000000     2.516000000     1.341000000
H     3.507000000     2.796000000     2.352000000
C     3.296000000     3.277000000     0.253000000
O     2.415000000     4.304000000     0.559000000
C     1.002000000     3.982000000     0.203000000
H     0.846000000     2.916000000    -0.015000000
C    -0.048000000     4.309000000     1.279000000
C    -1.191000000     5.042000000     0.979000000
H    -1.294000000     5.413000000    -0.037000000
C     0.137000000     3.783000000     2.546000000
H     1.013000000     3.203000000     2.827000000
C    -0.755000000     4.090000000     3.556000000
O    -0.651000000     3.676000000     4.834000000
C    -1.882000000     4.771000000     3.246000000
H    -2.613000000     4.931000000     4.035000000
C    -2.198000000     5.232000000     1.935000000
O    -3.319000000     5.955000000     1.740000000
C    -4.073000000     5.826000000     0.643000000
C    -4.606000000     4.623000000     0.277000000
H    -4.422000000     3.744000000     0.890000000
C    -4.228000000     6.913000000    -0.138000000
H    -3.782000000     7.877000000     0.091000000
C    -5.077000000     6.882000000    -1.217000000
H    -5.317000000     7.763000000    -1.806000000
C    -5.587000000     5.634000000    -1.606000000
H    -6.378000000     5.686000000    -2.350000000
C    -5.251000000     4.466000000    -0.937000000
O    -5.952000000     3.276000000    -1.161000000
C    -5.356000000     2.096000000    -1.577000000
C    -5.857000000     0.856000000    -1.156000000
H    -6.746000000     0.775000000    -0.536000000
C    -5.206000000    -0.324000000    -1.547000000
O    -5.713000000    -1.506000000    -1.139000000
C    -5.626000000    -2.728000000    -1.817000000
C    -4.796000000    -3.725000000    -1.294000000
H    -4.315000000    -3.649000000    -0.322000000
C    -6.119000000    -2.912000000    -3.110000000
H    -6.825000000    -2.191000000    -3.514000000
C    -5.855000000    -4.078000000    -3.865000000
H    -6.299000000    -4.309000000    -4.830000000
C    -5.084000000    -5.098000000    -3.256000000
H    -4.925000000    -6.045000000    -3.766000000
C    -4.662000000    -4.919000000    -2.034000000
O    -3.943000000    -5.893000000    -1.391000000
C    -2.685000000    -5.807000000    -0.886000000
C    -2.341000000    -6.363000000     0.360000000
H    -3.110000000    -6.891000000     0.918000000
C    -1.146000000    -5.980000000     0.969000000
O    -1.038000000    -6.346000000     2.290000000
C     0.112000000    -6.107000000     3.004000000
C     0.096000000    -4.947000000     3.801000000
H    -0.816000000    -4.391000000     4.002000000
C     1.235000000    -6.859000000     2.884000000
H     1.096000000    -7.865000000     2.497000000
C     2.438000000    -6.408000000     3.445000000
H     3.323000000    -7.030000000     3.337000000
C     2.450000000    -5.288000000     4.183000000
H     3.318000000    -4.936000000     4.734000000
C     1.277000000    -4.564000000     4.457000000
O     1.243000000    -3.466000000     5.354000000
C     2.005000000    -2.313000000     5.072000000
C     2.174000000    -1.445000000     6.141000000
H     1.619000000    -1.533000000     7.072000000
C     2.794000000    -0.217000000     5.878000000
O     2.685000000     0.861000000     6.776000000
C     2.265000000     2.101000000     6.372000000
C     3.115000000     3.225000000     6.561000000
H     4.115000000     3.063000000     6.956000000
C     2.742000000     4.440000000     6.033000000
H     3.297000000     5.334000000     6.305000000
C     1.459000000     4.559000000     5.454000000
H     1.163000000     5.549000000     5.115000000
C     0.614000000     3.439000000     5.329000000
C     1.045000000     2.200000000     5.688000000
H     0.472000000     1.279000000     5.606000000
C    -0.644000000    -0.903000000     2.193000000
H    -0.520000000    -1.682000000     2.940000000
C    -0.252000000    -1.223000000     0.933000000
H     0.295000000    -2.140000000     0.729000000
C    -0.709000000    -0.379000000    -0.132000000
H    -0.342000000    -0.538000000    -1.181000000
C    -1.511000000     0.716000000     0.094000000
H    -1.698000000     1.399000000    -0.732000000
C    -1.927000000     1.002000000     1.422000000
H    -2.516000000     1.864000000     1.726000000
C    -1.454000000     0.165000000     2.477000000
C    -1.990000000     0.324000000     3.913000000
O    -2.936000000     1.086000000     4.128000000
O    -1.594000000    -0.403000000     4.790000000
O    -5.786000000     4.592000000     4.651000000
H    -6.709000000     4.338000000     4.653000000
H    -5.381000000     4.018000000     4.000000000
O    -7.135000000    -0.528000000     8.111000000
H    -7.143000000     0.145000000     8.792000000
H    -6.296000000    -0.408000000     7.666000000
O    -3.260000000     2.459000000     6.287000000
H    -2.769000000     3.261000000     6.107000000
H    -3.242000000     1.976000000     5.460000000
O    -1.031000000    -2.821000000     7.431000000
H    -0.342000000    -2.857000000     6.767000000
H    -0.747000000    -3.439000000     8.104000000
O    -6.729000000     0.160000000     2.619000000
H    -7.024000000    -0.505000000     1.997000000
H    -6.135000000    -0.308000000     3.206000000
O    -3.713000000    -2.095000000     7.654000000
H    -2.805000000    -2.395000000     7.620000000
H    -3.676000000    -1.185000000     7.359000000
O    -3.135000000    -2.953000000     1.632000000
H    -2.992000000    -3.061000000     2.572000000
H    -2.388000000    -2.435000000     1.334000000
O    -4.887000000     2.493000000     3.423000000
H    -5.511000000     1.809000000     3.183000000
H    -4.088000000     2.019000000     3.654000000
O    -4.641000000    -0.981000000     4.097000000
H    -4.133000000    -1.791000000     4.127000000
H    -4.010000000    -0.313000000     3.828000000
O    -2.382000000     2.134000000     9.762000000
H    -1.474000000     2.409000000     9.885000000
H    -2.750000000     2.783000000     9.163000000
O    -7.045000000    -2.758000000     4.080000000
H    -7.232000000    -3.099000000     3.205000000
H    -6.219000000    -2.285000000     3.981000000
O    -2.222000000    -1.316000000    10.942000000
H    -1.911000000    -0.826000000    10.181000000
H    -1.540000000    -1.968000000    11.101000000
O    -5.316000000     3.453000000     7.579000000
H    -6.128000000     3.227000000     7.126000000
H    -4.625000000     3.242000000     6.951000000
O    -6.216000000    -3.831000000     1.408000000
H    -6.041000000    -4.745000000     1.184000000
H    -5.349000000    -3.435000000     1.490000000
O    -3.656000000     5.681000000     6.175000000
H    -4.411000000     5.153000000     5.916000000
H    -3.435000000     5.369000000     7.053000000
O    -1.462000000     0.339000000     7.309000000
H    -2.187000000     0.924000000     7.527000000
H    -1.564000000     0.171000000     6.372000000
O    -4.813000000     0.295000000     7.198000000
H    -4.877000000     0.355000000     6.245000000
H    -4.833000000     1.204000000     7.497000000
O    -0.246000000    -0.599000000     9.391000000
H    -0.670000000    -0.400000000     8.557000000
H    -0.112000000    -1.547000000     9.372000000
O    -2.670000000    -2.735000000     4.480000000
H    -2.238000000    -1.921000000     4.737000000
H    -2.351000000    -3.384000000     5.108000000
