215
-1427.76931
C    -4.313000000     0.065000000    -1.496000000
H    -3.915000000    -0.885000000    -1.846000000
C    -3.734000000     1.267000000    -1.908000000
C    -4.201000000     2.420000000    -1.290000000
H    -3.861000000     3.402000000    -1.609000000
C    -2.536000000     1.364000000    -2.877000000
O    -2.694000000     0.343000000    -3.931000000
H    -1.704000000     0.958000000    -2.283000000
O    -2.266000000     2.676000000    -3.423000000
C    -0.977000000     3.174000000    -3.402000000
C    -0.645000000     4.160000000    -2.424000000
H    -1.385000000     4.615000000    -1.771000000
C     0.705000000     4.414000000    -2.129000000
O     0.983000000     5.091000000    -0.938000000
C     1.653000000     3.740000000    -2.854000000
C     3.149000000     3.869000000    -2.489000000
H     3.760000000     3.790000000    -3.390000000
C     3.694000000     2.872000000    -1.537000000
C     4.343000000     1.743000000    -2.058000000
H     4.525000000     1.659000000    -3.127000000
H     3.204000000     4.916000000    -2.182000000
C     1.338000000     2.918000000    -3.911000000
H     2.117000000     2.362000000    -4.426000000
C     0.039000000     2.520000000    -4.124000000
C    -0.332000000     1.555000000    -5.271000000
H     0.481000000     1.618000000    -5.998000000
H    -1.233000000     1.890000000    -5.790000000
C    -0.378000000     0.116000000    -4.787000000
C     0.703000000    -0.719000000    -4.959000000
H     1.572000000    -0.263000000    -5.428000000
C    -1.594000000    -0.439000000    -4.354000000
C    -1.652000000    -1.696000000    -3.972000000
H    -2.521000000    -2.199000000    -3.555000000
C    -0.513000000    -2.476000000    -4.000000000
O    -0.622000000    -3.616000000    -3.227000000
C    -0.032000000    -3.703000000    -1.932000000
C    -0.931000000    -4.426000000    -0.971000000
C    -0.408000000    -4.867000000     0.214000000
H     0.645000000    -4.718000000     0.438000000
C    -2.223000000    -4.693000000    -1.287000000
H    -2.720000000    -4.317000000    -2.178000000
O     1.308000000    -4.309000000    -1.988000000
H    -0.030000000    -2.688000000    -1.507000000
C     0.707000000    -2.018000000    -4.494000000
C     1.995000000    -2.791000000    -4.444000000
H     2.720000000    -2.461000000    -5.190000000
H     1.839000000    -3.841000000    -4.700000000
C     2.729000000    -2.667000000    -3.087000000
C     3.773000000    -1.760000000    -2.977000000
H     3.967000000    -1.212000000    -3.896000000
C     2.382000000    -3.459000000    -1.954000000
C     3.046000000    -3.328000000    -0.753000000
H     2.624000000    -3.906000000     0.066000000
C     3.955000000    -2.347000000    -0.628000000
O     4.419000000    -2.116000000     0.614000000
C     3.941000000    -1.010000000     1.330000000
C     3.839000000    -1.516000000     2.767000000
C     3.506000000    -2.858000000     3.083000000
H     3.515000000    -3.593000000     2.283000000
C     3.809000000    -0.564000000     3.799000000
H     4.077000000     0.469000000     3.592000000
O     4.922000000     0.036000000     1.177000000
H     2.965000000    -0.608000000     1.022000000
C     4.423000000    -1.597000000    -1.749000000
C     5.453000000    -0.486000000    -1.622000000
H     5.869000000    -0.279000000    -2.610000000
H     6.223000000    -0.768000000    -0.900000000
C     4.873000000     0.815000000    -1.163000000
C     4.676000000     1.060000000     0.190000000
C     4.043000000     2.204000000     0.687000000
H     4.027000000     2.317000000     1.768000000
C     3.497000000     3.076000000    -0.169000000
O     2.771000000     4.150000000     0.354000000
C     1.356000000     4.179000000     0.167000000
H     1.006000000     3.166000000    -0.078000000
C     0.478000000     4.497000000     1.389000000
C    -0.701000000     5.306000000     1.305000000
H    -1.041000000     5.752000000     0.374000000
C     0.732000000     3.854000000     2.637000000
H     1.622000000     3.256000000     2.816000000
C    -0.075000000     4.075000000     3.787000000
O     0.061000000     3.331000000     4.858000000
C    -1.204000000     4.898000000     3.645000000
H    -1.878000000     5.007000000     4.491000000
C    -1.471000000     5.546000000     2.427000000
O    -2.625000000     6.324000000     2.417000000
C    -3.629000000     6.122000000     1.557000000
C    -4.195000000     4.885000000     1.331000000
H    -3.843000000     4.022000000     1.891000000
C    -4.003000000     7.201000000     0.757000000
H    -3.475000000     8.130000000     0.955000000
C    -4.989000000     7.111000000    -0.184000000
H    -5.186000000     7.914000000    -0.890000000
C    -5.593000000     5.820000000    -0.344000000
H    -6.336000000     5.811000000    -1.137000000
C    -5.144000000     4.693000000     0.351000000
O    -5.859000000     3.498000000     0.128000000
C    -5.263000000     2.402000000    -0.405000000
C    -5.865000000     1.254000000    -0.090000000
H    -6.674000000     1.188000000     0.633000000
C    -5.384000000     0.047000000    -0.599000000
O    -6.084000000    -1.124000000    -0.368000000
C    -6.019000000    -2.282000000    -1.175000000
C    -5.158000000    -3.266000000    -0.707000000
H    -4.654000000    -3.183000000     0.253000000
C    -6.900000000    -2.476000000    -2.284000000
H    -7.613000000    -1.718000000    -2.597000000
C    -6.829000000    -3.727000000    -2.928000000
H    -7.571000000    -3.941000000    -3.692000000
C    -5.951000000    -4.697000000    -2.475000000
H    -5.892000000    -5.661000000    -2.973000000
C    -5.118000000    -4.496000000    -1.365000000
O    -4.353000000    -5.521000000    -0.819000000
C    -3.078000000    -5.304000000    -0.412000000
C    -2.558000000    -5.913000000     0.709000000
H    -3.174000000    -6.463000000     1.415000000
C    -1.219000000    -5.719000000     1.038000000
O    -0.784000000    -6.171000000     2.224000000
C     0.463000000    -6.220000000     2.624000000
C     1.133000000    -5.225000000     3.293000000
H     0.706000000    -4.250000000     3.512000000
C     1.123000000    -7.424000000     2.376000000
H     0.547000000    -8.205000000     1.886000000
C     2.423000000    -7.661000000     2.823000000
H     2.886000000    -8.643000000     2.774000000
C     3.058000000    -6.671000000     3.603000000
H     3.983000000    -6.881000000     4.135000000
C     2.383000000    -5.459000000     3.807000000
O     2.926000000    -4.487000000     4.685000000
C     3.189000000    -3.154000000     4.401000000
C     3.087000000    -2.171000000     5.354000000
H     2.618000000    -2.443000000     6.296000000
C     3.427000000    -0.866000000     5.073000000
O     3.510000000     0.105000000     6.054000000
C     3.101000000     1.438000000     5.830000000
C     3.858000000     2.509000000     6.374000000
H     4.804000000     2.231000000     6.833000000
C     3.448000000     3.838000000     6.169000000
H     4.029000000     4.728000000     6.399000000
C     2.176000000     4.095000000     5.705000000
H     1.700000000     5.070000000     5.641000000
C     1.323000000     3.024000000     5.337000000
C     1.753000000     1.707000000     5.412000000
H     1.066000000     0.918000000     5.119000000
C    -0.158000000    -0.725000000     2.932000000
H     0.167000000    -1.245000000     3.830000000
C     0.545000000    -1.165000000     1.847000000
H     1.118000000    -2.085000000     1.930000000
C     0.428000000    -0.436000000     0.658000000
H     1.017000000    -0.757000000    -0.147000000
C    -0.399000000     0.602000000     0.562000000
H    -0.504000000     1.190000000    -0.346000000
C    -1.150000000     0.970000000     1.705000000
H    -1.735000000     1.885000000     1.763000000
C    -0.943000000     0.390000000     2.947000000
C    -1.683000000     0.790000000     4.245000000
O    -2.539000000     1.632000000     4.194000000
O    -1.285000000     0.365000000     5.332000000
O    -5.201000000     5.905000000     5.474000000
H    -4.313000000     6.254000000     5.552000000
H    -5.091000000     5.068000000     5.023000000
O    -3.624000000     1.424000000     6.716000000
H    -2.977000000     2.050000000     7.041000000
H    -3.247000000     1.092000000     5.901000000
O    -5.205000000    -1.021000000     4.594000000
H    -4.605000000    -0.499000000     4.061000000
H    -5.511000000    -1.711000000     4.006000000
O    -6.282000000     1.586000000     3.788000000
H    -6.339000000     0.751000000     4.253000000
H    -5.523000000     1.489000000     3.213000000
O    -6.004000000    -3.129000000     6.793000000
H    -6.904000000    -2.806000000     6.834000000
H    -5.655000000    -2.763000000     5.981000000
O    -3.233000000    -1.461000000     1.645000000
H    -3.550000000    -2.350000000     1.487000000
H    -2.437000000    -1.394000000     1.116000000
O    -4.155000000     3.633000000     4.459000000
H    -4.969000000     3.129000000     4.454000000
H    -3.464000000     2.972000000     4.494000000
O    -1.340000000     2.726000000     7.197000000
H    -1.087000000     2.405000000     6.331000000
H    -1.347000000     3.678000000     7.107000000
O    -4.323000000     1.212000000     2.352000000
H    -3.969000000     0.548000000     1.759000000
H    -3.619000000     1.370000000     2.981000000
O    -7.745000000    -0.302000000     5.250000000
H    -7.789000000    -0.599000000     4.341000000
H    -6.812000000    -0.316000000     5.461000000
O     0.055000000     2.204000000     9.524000000
H    -0.376000000     2.409000000     8.695000000
H    -0.380000000     2.765000000    10.166000000
O    -3.742000000    -0.670000000     8.430000000
H    -3.476000000    -1.184000000     7.667000000
H    -3.718000000     0.237000000     8.128000000
O    -4.702000000     3.832000000     7.918000000
H    -5.108000000     4.610000000     7.537000000
H    -4.272000000     3.400000000     7.180000000
O     2.771000000     1.103000000     8.739000000
H     3.094000000     0.882000000     7.866000000
H     1.822000000     1.172000000     8.633000000
O    -1.322000000    -4.779000000     5.280000000
H    -1.853000000    -5.038000000     4.527000000
H    -1.607000000    -3.887000000     5.479000000
O    -1.125000000     5.430000000     7.136000000
H    -1.648000000     6.072000000     6.656000000
H    -0.896000000     5.870000000     7.954000000
O    -0.315000000    -0.311000000     7.593000000
H    -0.239000000     0.401000000     8.228000000
H    -0.458000000     0.130000000     6.755000000
O     0.197000000    -2.187000000     9.460000000
H     0.159000000    -1.609000000     8.697000000
H     0.181000000    -3.071000000     9.092000000
O    -2.605000000    -2.048000000     6.225000000
H    -3.011000000    -1.527000000     5.533000000
H    -1.833000000    -1.545000000     6.483000000
