215
-1452.39024
C    -4.589000000     0.539000000    -2.802000000
H    -4.503000000    -0.004000000    -3.740000000
C    -3.556000000     1.419000000    -2.454000000
C    -3.660000000     2.098000000    -1.213000000
H    -2.779000000     2.583000000    -0.800000000
C    -2.173000000     1.430000000    -3.127000000
O    -2.185000000     0.706000000    -4.341000000
H    -1.409000000     0.932000000    -2.512000000
O    -1.864000000     2.867000000    -3.380000000
C    -0.546000000     3.204000000    -3.114000000
C    -0.158000000     4.036000000    -1.976000000
H    -1.009000000     4.348000000    -1.376000000
C     1.119000000     4.393000000    -1.688000000
O     1.414000000     5.052000000    -0.550000000
C     2.115000000     3.782000000    -2.489000000
C     3.591000000     3.998000000    -2.095000000
H     4.211000000     3.939000000    -2.992000000
C     4.014000000     2.980000000    -1.051000000
C     4.588000000     1.798000000    -1.490000000
H     4.913000000     1.713000000    -2.523000000
H     3.831000000     5.032000000    -1.836000000
C     1.805000000     2.978000000    -3.521000000
H     2.567000000     2.503000000    -4.134000000
C     0.506000000     2.702000000    -3.920000000
C     0.308000000     1.772000000    -5.144000000
H     1.211000000     1.964000000    -5.727000000
H    -0.494000000     2.200000000    -5.749000000
C     0.127000000     0.274000000    -4.830000000
C     1.188000000    -0.566000000    -4.891000000
H     2.167000000    -0.212000000    -5.202000000
C    -1.144000000    -0.172000000    -4.563000000
C    -1.313000000    -1.570000000    -4.315000000
H    -2.268000000    -2.000000000    -4.024000000
C    -0.200000000    -2.391000000    -4.270000000
O    -0.427000000    -3.630000000    -3.660000000
C    -0.063000000    -3.718000000    -2.271000000
C    -1.105000000    -4.527000000    -1.508000000
C    -0.770000000    -5.276000000    -0.440000000
H     0.268000000    -5.319000000    -0.120000000
C    -2.452000000    -4.405000000    -1.806000000
H    -2.826000000    -3.862000000    -2.670000000
O     1.241000000    -4.309000000    -2.129000000
H    -0.012000000    -2.703000000    -1.849000000
C     1.080000000    -1.901000000    -4.573000000
C     2.321000000    -2.727000000    -4.459000000
H     3.091000000    -2.313000000    -5.113000000
H     2.045000000    -3.739000000    -4.763000000
C     2.879000000    -2.650000000    -2.991000000
C     3.952000000    -1.781000000    -2.710000000
H     4.460000000    -1.263000000    -3.519000000
C     2.330000000    -3.445000000    -1.973000000
C     2.828000000    -3.250000000    -0.704000000
H     2.441000000    -3.847000000     0.118000000
C     3.866000000    -2.365000000    -0.417000000
O     4.154000000    -2.239000000     0.847000000
C     3.566000000    -1.108000000     1.519000000
C     2.946000000    -1.433000000     2.907000000
C     2.677000000    -2.760000000     3.208000000
H     3.033000000    -3.516000000     2.513000000
C     2.420000000    -0.434000000     3.762000000
H     2.558000000     0.582000000     3.401000000
O     4.553000000    -0.095000000     1.658000000
H     2.747000000    -0.665000000     0.933000000
C     4.496000000    -1.592000000    -1.408000000
C     5.572000000    -0.559000000    -1.036000000
H     6.284000000    -0.404000000    -1.849000000
H     6.197000000    -0.922000000    -0.217000000
C     4.939000000     0.759000000    -0.620000000
C     4.570000000     0.946000000     0.757000000
C     3.949000000     2.108000000     1.151000000
H     3.523000000     2.270000000     2.138000000
C     3.752000000     3.151000000     0.254000000
O     3.065000000     4.250000000     0.717000000
C     1.605000000     4.293000000     0.643000000
H     1.307000000     3.235000000     0.611000000
C     0.945000000     4.916000000     1.861000000
C    -0.379000000     5.399000000     1.856000000
H    -0.948000000     5.565000000     0.945000000
C     1.597000000     4.811000000     3.101000000
H     2.640000000     4.505000000     3.139000000
C     0.961000000     5.159000000     4.311000000
O     1.468000000     4.899000000     5.614000000
C    -0.396000000     5.495000000     4.289000000
H    -0.959000000     5.661000000     5.204000000
C    -1.045000000     5.675000000     3.087000000
O    -2.438000000     6.089000000     3.096000000
C    -3.414000000     5.735000000     2.204000000
C    -3.834000000     4.391000000     2.055000000
H    -3.490000000     3.703000000     2.822000000
C    -3.761000000     6.695000000     1.273000000
H    -3.410000000     7.722000000     1.332000000
C    -4.607000000     6.311000000     0.224000000
H    -4.890000000     7.068000000    -0.503000000
C    -4.988000000     4.976000000     0.028000000
H    -5.619000000     4.594000000    -0.771000000
C    -4.595000000     3.966000000     0.958000000
O    -4.954000000     2.586000000     0.841000000
C    -4.815000000     1.962000000    -0.377000000
C    -5.802000000     1.127000000    -0.824000000
H    -6.532000000     0.765000000    -0.105000000
C    -5.658000000     0.325000000    -2.000000000
O    -6.642000000    -0.644000000    -2.355000000
C    -6.352000000    -1.908000000    -2.813000000
C    -5.621000000    -2.779000000    -1.972000000
H    -5.133000000    -2.450000000    -1.058000000
C    -6.700000000    -2.314000000    -4.133000000
H    -7.258000000    -1.585000000    -4.714000000
C    -6.266000000    -3.649000000    -4.541000000
H    -6.552000000    -3.996000000    -5.531000000
C    -5.739000000    -4.503000000    -3.615000000
H    -5.544000000    -5.540000000    -3.877000000
C    -5.321000000    -4.062000000    -2.337000000
O    -4.763000000    -4.906000000    -1.436000000
C    -3.424000000    -4.997000000    -1.062000000
C    -3.070000000    -5.648000000     0.114000000
H    -3.872000000    -5.975000000     0.771000000
C    -1.731000000    -5.890000000     0.385000000
O    -1.468000000    -6.549000000     1.599000000
C    -0.208000000    -6.452000000     2.277000000
C     0.219000000    -5.371000000     3.044000000
H    -0.464000000    -4.525000000     3.016000000
C     0.471000000    -7.690000000     2.498000000
H     0.092000000    -8.620000000     2.084000000
C     1.495000000    -7.836000000     3.376000000
H     1.761000000    -8.871000000     3.577000000
C     1.942000000    -6.726000000     4.101000000
H     2.774000000    -6.739000000     4.801000000
C     1.323000000    -5.465000000     3.852000000
O     1.583000000    -4.408000000     4.801000000
C     1.867000000    -3.119000000     4.364000000
C     1.446000000    -2.068000000     5.180000000
H     0.729000000    -2.278000000     5.970000000
C     1.681000000    -0.762000000     4.854000000
O     1.195000000     0.171000000     5.705000000
C     1.856000000     1.321000000     5.977000000
C     3.175000000     1.294000000     6.427000000
H     3.662000000     0.339000000     6.604000000
C     3.855000000     2.471000000     6.711000000
H     4.876000000     2.473000000     7.084000000
C     3.173000000     3.663000000     6.492000000
H     3.760000000     4.573000000     6.580000000
C     1.880000000     3.677000000     6.001000000
C     1.168000000     2.557000000     5.746000000
H     0.190000000     2.506000000     5.275000000
C    -0.598000000    -1.166000000     2.314000000
H    -0.624000000    -2.038000000     2.963000000
C    -0.060000000    -1.374000000     1.002000000
H     0.316000000    -2.359000000     0.737000000
C    -0.082000000    -0.405000000     0.022000000
H     0.187000000    -0.625000000    -0.976000000
C    -0.517000000     0.868000000     0.358000000
H    -0.584000000     1.602000000    -0.442000000
C    -1.100000000     1.114000000     1.570000000
H    -1.458000000     2.115000000     1.799000000
C    -1.277000000     0.099000000     2.520000000
C    -1.959000000     0.428000000     3.802000000
O    -2.349000000     1.530000000     4.047000000
O    -2.198000000    -0.446000000     4.599000000
O    -1.868000000    -0.650000000     7.134000000
H    -1.261000000     0.079000000     7.007000000
H    -2.123000000    -0.906000000     6.247000000
O    -6.193000000    -2.594000000     5.724000000
H    -6.624000000    -1.931000000     5.185000000
H    -6.398000000    -3.424000000     5.294000000
O    -6.546000000     3.444000000     3.547000000
H    -6.963000000     2.775000000     4.090000000
H    -5.765000000     3.016000000     3.197000000
O    -5.177000000     0.229000000     2.394000000
H    -4.648000000    -0.399000000     1.902000000
H    -5.069000000     1.055000000     1.921000000
O    -5.453000000     3.516000000     7.954000000
H    -5.269000000     4.197000000     8.601000000
H    -5.172000000     2.704000000     8.374000000
O    -2.521000000     2.774000000     6.267000000
H    -3.355000000     2.355000000     6.484000000
H    -2.293000000     2.421000000     5.407000000
O    -8.057000000     1.285000000     4.218000000
H    -8.768000000     0.965000000     3.661000000
H    -8.326000000     1.053000000     5.107000000
O    -4.728000000     0.473000000     5.165000000
H    -3.778000000     0.577000000     5.115000000
H    -5.007000000     0.379000000     4.254000000
O    -3.827000000    -1.510000000     0.953000000
H    -2.891000000    -1.321000000     1.007000000
H    -3.923000000    -2.364000000     1.375000000
O    -7.134000000    -1.231000000     3.372000000
H    -7.460000000    -0.508000000     3.908000000
H    -6.336000000    -0.890000000     2.969000000
O    -3.642000000    -5.059000000     3.760000000
H    -3.351000000    -4.360000000     4.346000000
H    -4.390000000    -4.686000000     3.294000000
O    -3.891000000    -2.050000000     8.515000000
H    -3.371000000    -1.522000000     7.908000000
H    -3.704000000    -1.677000000     9.376000000
O    -2.732000000     5.446000000     7.199000000
H    -2.708000000     4.685000000     6.619000000
H    -3.093000000     6.148000000     6.659000000
O    -5.306000000    -3.935000000     1.917000000
H    -5.876000000    -3.507000000     2.555000000
H    -5.719000000    -3.760000000     1.071000000
O     2.072000000    -1.736000000     8.558000000
H     1.932000000    -0.836000000     8.854000000
H     1.193000000    -2.111000000     8.508000000
O    -0.725000000     1.728000000     8.408000000
H    -0.048000000     2.357000000     8.657000000
H    -1.415000000     2.262000000     8.013000000
O    -0.531000000    -2.620000000     8.582000000
H    -0.497000000    -3.403000000     8.033000000
H    -0.910000000    -1.947000000     8.017000000
O    -4.545000000     0.966000000     7.817000000
H    -3.673000000     0.574000000     7.861000000
H    -4.824000000     0.829000000     6.911000000
O    -3.277000000    -2.784000000     5.100000000
H    -2.790000000    -1.974000000     4.948000000
H    -4.159000000    -2.493000000     5.334000000
