215
-1481.40716
C    -4.626000000     0.494000000    -2.976000000
H    -4.288000000    -0.211000000    -3.731000000
C    -3.696000000     1.438000000    -2.518000000
C    -3.980000000     2.081000000    -1.322000000
H    -3.179000000     2.724000000    -0.966000000
C    -2.306000000     1.563000000    -3.132000000
O    -2.229000000     0.918000000    -4.459000000
H    -1.559000000     1.167000000    -2.428000000
O    -1.972000000     2.942000000    -3.333000000
C    -0.672000000     3.356000000    -3.056000000
C    -0.424000000     4.076000000    -1.968000000
H    -1.281000000     4.519000000    -1.467000000
C     0.915000000     4.317000000    -1.539000000
O     1.015000000     4.914000000    -0.300000000
C     2.033000000     3.878000000    -2.291000000
C     3.443000000     3.958000000    -1.793000000
H     4.150000000     3.980000000    -2.625000000
C     3.838000000     2.917000000    -0.776000000
C     4.557000000     1.804000000    -1.259000000
H     4.715000000     1.820000000    -2.334000000
H     3.520000000     4.924000000    -1.291000000
C     1.750000000     3.135000000    -3.419000000
H     2.556000000     2.699000000    -4.002000000
C     0.449000000     2.945000000    -3.807000000
C     0.199000000     2.184000000    -5.057000000
H     0.997000000     2.357000000    -5.782000000
H    -0.653000000     2.472000000    -5.675000000
C     0.128000000     0.681000000    -4.770000000
C     1.284000000    -0.097000000    -4.765000000
H     2.275000000     0.316000000    -4.933000000
C    -1.129000000     0.077000000    -4.569000000
C    -1.229000000    -1.281000000    -4.217000000
H    -2.181000000    -1.800000000    -4.136000000
C    -0.053000000    -2.002000000    -4.173000000
O    -0.227000000    -3.214000000    -3.671000000
C     0.137000000    -3.377000000    -2.355000000
C    -0.923000000    -4.234000000    -1.646000000
C    -0.606000000    -4.572000000    -0.327000000
H     0.336000000    -4.231000000     0.094000000
C    -2.197000000    -4.293000000    -2.215000000
H    -2.541000000    -3.870000000    -3.155000000
O     1.431000000    -3.985000000    -2.251000000
H     0.130000000    -2.347000000    -1.968000000
C     1.213000000    -1.442000000    -4.417000000
C     2.434000000    -2.257000000    -4.302000000
H     3.241000000    -1.887000000    -4.938000000
H     2.356000000    -3.277000000    -4.684000000
C     3.071000000    -2.328000000    -2.964000000
C     4.029000000    -1.441000000    -2.644000000
H     4.374000000    -0.611000000    -3.255000000
C     2.555000000    -3.178000000    -2.040000000
C     3.107000000    -3.313000000    -0.733000000
H     2.776000000    -4.042000000     0.001000000
C     4.091000000    -2.425000000    -0.357000000
O     4.478000000    -2.408000000     0.963000000
C     3.894000000    -1.290000000     1.705000000
C     3.404000000    -1.750000000     3.036000000
C     2.942000000    -3.084000000     3.233000000
H     3.078000000    -3.783000000     2.411000000
C     3.318000000    -0.863000000     4.132000000
H     3.529000000     0.171000000     3.872000000
O     4.813000000    -0.163000000     1.828000000
H     2.923000000    -1.027000000     1.259000000
C     4.565000000    -1.485000000    -1.296000000
C     5.641000000    -0.480000000    -0.921000000
H     5.971000000    -0.222000000    -1.929000000
H     6.498000000    -0.830000000    -0.341000000
C     4.974000000     0.796000000    -0.357000000
C     4.567000000     0.853000000     0.972000000
C     3.948000000     2.013000000     1.489000000
H     3.679000000     2.062000000     2.541000000
C     3.558000000     3.033000000     0.601000000
O     2.853000000     4.083000000     1.114000000
C     1.417000000     4.078000000     0.816000000
H     0.993000000     3.086000000     0.598000000
C     0.560000000     4.479000000     1.983000000
C    -0.663000000     5.187000000     1.872000000
H    -1.095000000     5.490000000     0.921000000
C     0.913000000     3.915000000     3.184000000
H     1.784000000     3.268000000     3.254000000
C     0.112000000     4.085000000     4.311000000
O     0.256000000     3.432000000     5.443000000
C    -1.134000000     4.713000000     4.180000000
H    -1.786000000     4.912000000     5.026000000
C    -1.464000000     5.288000000     2.949000000
O    -2.734000000     5.867000000     2.851000000
C    -3.668000000     5.505000000     1.914000000
C    -4.000000000     4.134000000     1.760000000
H    -3.502000000     3.417000000     2.408000000
C    -4.093000000     6.470000000     0.996000000
H    -3.818000000     7.517000000     1.097000000
C    -5.079000000     6.155000000     0.022000000
H    -5.359000000     6.870000000    -0.747000000
C    -5.577000000     4.858000000    -0.027000000
H    -6.407000000     4.654000000    -0.699000000
C    -4.957000000     3.857000000     0.788000000
O    -5.351000000     2.564000000     0.617000000
C    -5.140000000     1.928000000    -0.612000000
C    -6.049000000     1.024000000    -1.152000000
H    -7.018000000     0.927000000    -0.671000000
C    -5.801000000     0.271000000    -2.313000000
O    -6.644000000    -0.754000000    -2.626000000
C    -6.295000000    -1.999000000    -3.087000000
C    -5.414000000    -2.800000000    -2.291000000
H    -5.067000000    -2.388000000    -1.347000000
C    -6.794000000    -2.462000000    -4.325000000
H    -7.433000000    -1.852000000    -4.958000000
C    -6.432000000    -3.757000000    -4.712000000
H    -6.814000000    -4.122000000    -5.661000000
C    -5.579000000    -4.551000000    -3.931000000
H    -5.331000000    -5.579000000    -4.181000000
C    -5.124000000    -4.089000000    -2.713000000
O    -4.442000000    -5.019000000    -1.979000000
C    -3.175000000    -4.806000000    -1.384000000
C    -2.911000000    -5.176000000    -0.084000000
H    -3.702000000    -5.630000000     0.508000000
C    -1.620000000    -5.122000000     0.454000000
O    -1.446000000    -5.354000000     1.780000000
C    -0.274000000    -5.898000000     2.420000000
C     0.412000000    -5.122000000     3.339000000
H    -0.014000000    -4.203000000     3.735000000
C     0.265000000    -7.123000000     1.957000000
H    -0.284000000    -7.731000000     1.242000000
C     1.463000000    -7.567000000     2.578000000
H     1.899000000    -8.513000000     2.268000000
C     2.084000000    -6.939000000     3.631000000
H     3.020000000    -7.277000000     4.070000000
C     1.593000000    -5.615000000     3.940000000
O     2.212000000    -4.770000000     4.871000000
C     2.558000000    -3.490000000     4.519000000
C     2.490000000    -2.632000000     5.598000000
H     2.206000000    -3.004000000     6.578000000
C     2.891000000    -1.298000000     5.437000000
O     2.877000000    -0.464000000     6.552000000
C     2.809000000     0.944000000     6.376000000
C     3.682000000     1.731000000     7.050000000
H     4.454000000     1.293000000     7.677000000
C     3.534000000     3.106000000     7.073000000
H     4.356000000     3.674000000     7.501000000
C     2.451000000     3.717000000     6.441000000
H     2.286000000     4.789000000     6.516000000
C     1.502000000     2.909000000     5.831000000
C     1.699000000     1.564000000     5.717000000
H     0.933000000     0.923000000     5.290000000
C    -0.379000000    -0.820000000     2.517000000
H    -0.297000000    -1.380000000     3.445000000
C     0.178000000    -1.308000000     1.341000000
H     0.676000000    -2.271000000     1.259000000
C     0.451000000    -0.442000000     0.302000000
H     1.061000000    -0.787000000    -0.552000000
C    -0.213000000     0.769000000     0.263000000
H    -0.059000000     1.396000000    -0.611000000
C    -1.017000000     1.154000000     1.403000000
H    -1.484000000     2.131000000     1.493000000
C    -1.080000000     0.323000000     2.550000000
C    -1.855000000     0.760000000     3.772000000
O    -2.855000000     1.458000000     3.610000000
O    -1.757000000     0.118000000     4.823000000
O    -4.280000000     4.409000000     7.585000000
H    -5.095000000     3.941000000     7.768000000
H    -3.788000000     3.819000000     7.014000000
O    -0.520000000    -0.446000000     7.304000000
H    -1.305000000    -0.890000000     7.624000000
H    -0.829000000     0.086000000     6.570000000
O    -5.639000000    -1.568000000     5.863000000
H    -6.245000000    -1.014000000     5.371000000
H    -5.495000000    -2.327000000     5.298000000
O    -6.420000000    -3.770000000     1.899000000
H    -5.841000000    -3.062000000     1.617000000
H    -7.152000000    -3.326000000     2.327000000
O    -1.262000000    -5.377000000     6.270000000
H    -1.910000000    -4.676000000     6.332000000
H    -1.468000000    -5.822000000     5.448000000
O    -5.260000000     1.015000000     2.977000000
H    -4.403000000     1.240000000     3.341000000
H    -5.333000000     1.551000000     2.188000000
O    -2.787000000     2.693000000     6.169000000
H    -3.023000000     1.767000000     6.225000000
H    -2.859000000     2.903000000     5.238000000
O    -3.608000000     0.006000000     6.594000000
H    -2.955000000     0.140000000     5.906000000
H    -4.287000000    -0.526000000     6.179000000
O    -2.569000000    -1.553000000    -0.138000000
H    -2.075000000    -0.811000000     0.211000000
H    -2.153000000    -2.322000000     0.251000000
O    -7.389000000     0.040000000     4.653000000
H    -7.635000000     0.733000000     5.267000000
H    -6.824000000     0.476000000     4.015000000
O    -3.989000000    -4.503000000     4.173000000
H    -3.446000000    -3.754000000     4.418000000
H    -4.742000000    -4.118000000     3.727000000
O    -5.988000000    -1.910000000     8.648000000
H    -5.705000000    -2.820000000     8.560000000
H    -5.867000000    -1.535000000     7.776000000
O    -2.841000000    -1.868000000     8.554000000
H    -3.366000000    -1.175000000     8.153000000
H    -2.707000000    -1.575000000     9.456000000
O    -1.947000000     5.350000000     8.761000000
H    -1.544000000     4.483000000     8.809000000
H    -2.819000000     5.189000000     8.400000000
O    -5.260000000    -1.339000000     1.252000000
H    -5.400000000    -0.565000000     1.797000000
H    -4.400000000    -1.199000000     0.854000000
O    -1.326000000     2.354000000     8.759000000
H    -0.514000000     2.009000000     9.131000000
H    -1.113000000     2.528000000     7.842000000
O     1.034000000    -2.225000000     9.034000000
H     1.128000000    -3.131000000     8.738000000
H     0.562000000    -1.789000000     8.325000000
O    -4.271000000     1.098000000     8.989000000
H    -3.417000000     1.269000000     9.387000000
H    -4.065000000     0.754000000     8.120000000
O    -2.279000000    -2.516000000     4.852000000
H    -2.450000000    -1.632000000     4.528000000
H    -1.551000000    -2.410000000     5.464000000
