215
-1467.10681
C    -2.860000000     0.741000000    -4.042000000
H    -2.917000000    -0.341000000    -4.117000000
C    -1.583000000     1.218000000    -3.896000000
C    -1.441000000     2.618000000    -3.497000000
H    -0.440000000     2.969000000    -3.260000000
C    -0.351000000     0.387000000    -4.189000000
O    -0.591000000    -0.823000000    -4.899000000
H     0.059000000     0.124000000    -3.203000000
O     0.804000000     1.053000000    -4.736000000
C     1.982000000     0.856000000    -4.052000000
C     2.322000000     1.892000000    -3.221000000
H     1.800000000     2.845000000    -3.197000000
C     3.456000000     1.860000000    -2.381000000
O     3.775000000     2.839000000    -1.579000000
C     4.336000000     0.751000000    -2.548000000
C     5.413000000     0.557000000    -1.538000000
H     6.126000000    -0.119000000    -2.014000000
C     4.819000000     0.070000000    -0.158000000
C     4.759000000    -1.297000000     0.111000000
H     4.975000000    -2.082000000    -0.609000000
H     6.032000000     1.435000000    -1.342000000
C     3.991000000    -0.257000000    -3.458000000
H     4.517000000    -1.209000000    -3.477000000
C     2.774000000    -0.256000000    -4.127000000
C     2.313000000    -1.448000000    -4.996000000
H     3.230000000    -1.989000000    -5.236000000
H     1.894000000    -1.038000000    -5.917000000
C     1.245000000    -2.254000000    -4.216000000
C     1.625000000    -3.419000000    -3.520000000
H     2.681000000    -3.669000000    -3.457000000
C    -0.119000000    -1.971000000    -4.346000000
C    -1.111000000    -2.661000000    -3.600000000
H    -2.183000000    -2.498000000    -3.525000000
C    -0.697000000    -3.761000000    -2.843000000
O    -1.676000000    -4.320000000    -2.033000000
C    -1.711000000    -3.913000000    -0.632000000
C    -3.178000000    -3.725000000    -0.097000000
C    -3.555000000    -3.987000000     1.234000000
H    -2.844000000    -4.355000000     1.970000000
C    -4.195000000    -3.220000000    -0.944000000
H    -4.016000000    -3.043000000    -2.002000000
O    -1.064000000    -4.910000000     0.178000000
H    -1.172000000    -2.956000000    -0.572000000
C     0.687000000    -4.168000000    -2.770000000
C     1.066000000    -5.266000000    -1.838000000
H     2.028000000    -5.713000000    -2.097000000
H     0.346000000    -6.086000000    -1.885000000
C     1.276000000    -4.684000000    -0.434000000
C     2.559000000    -4.297000000    -0.097000000
H     3.375000000    -4.399000000    -0.808000000
C     0.292000000    -4.709000000     0.558000000
C     0.537000000    -4.214000000     1.821000000
H    -0.283000000    -4.180000000     2.534000000
C     1.772000000    -3.674000000     2.108000000
O     1.913000000    -3.042000000     3.279000000
C     1.997000000    -1.643000000     3.369000000
C     1.048000000    -0.997000000     4.383000000
C    -0.255000000    -1.583000000     4.597000000
H    -0.591000000    -2.435000000     4.011000000
C     1.453000000     0.221000000     4.978000000
H     2.400000000     0.679000000     4.703000000
O     3.380000000    -1.297000000     3.512000000
H     1.597000000    -1.206000000     2.442000000
C     2.816000000    -3.807000000     1.205000000
C     4.183000000    -3.308000000     1.602000000
H     4.973000000    -3.792000000     1.025000000
H     4.395000000    -3.571000000     2.640000000
C     4.365000000    -1.730000000     1.360000000
C     4.056000000    -0.840000000     2.380000000
C     4.131000000     0.492000000     2.068000000
H     3.767000000     1.136000000     2.864000000
C     4.563000000     0.984000000     0.852000000
O     4.523000000     2.385000000     0.667000000
C     3.426000000     2.818000000    -0.161000000
H     2.633000000     2.079000000     0.027000000
C     2.809000000     4.104000000     0.318000000
C     2.379000000     5.044000000    -0.575000000
H     2.467000000     4.928000000    -1.653000000
C     2.563000000     4.281000000     1.683000000
H     2.744000000     3.496000000     2.412000000
C     1.929000000     5.483000000     2.102000000
O     1.639000000     5.706000000     3.431000000
C     1.607000000     6.518000000     1.176000000
H     1.085000000     7.371000000     1.603000000
C     1.789000000     6.258000000    -0.173000000
O     1.357000000     7.103000000    -1.057000000
C     0.462000000     6.746000000    -2.107000000
C    -0.658000000     5.935000000    -1.929000000
H    -0.934000000     5.661000000    -0.914000000
C     0.794000000     7.144000000    -3.407000000
H     1.569000000     7.875000000    -3.624000000
C     0.004000000     6.794000000    -4.484000000
H     0.162000000     7.288000000    -5.439000000
C    -1.014000000     5.921000000    -4.367000000
H    -1.732000000     5.765000000    -5.169000000
C    -1.379000000     5.534000000    -3.036000000
O    -2.501000000     4.742000000    -2.919000000
C    -2.586000000     3.399000000    -3.372000000
C    -3.843000000     2.914000000    -3.609000000
H    -4.670000000     3.589000000    -3.403000000
C    -3.962000000     1.582000000    -4.054000000
O    -5.287000000     1.188000000    -4.404000000
C    -5.746000000    -0.078000000    -4.058000000
C    -5.912000000    -0.398000000    -2.742000000
H    -5.651000000     0.256000000    -1.914000000
C    -5.823000000    -1.051000000    -5.059000000
H    -5.655000000    -0.838000000    -6.112000000
C    -6.276000000    -2.353000000    -4.715000000
H    -6.331000000    -3.133000000    -5.470000000
C    -6.551000000    -2.652000000    -3.384000000
H    -6.776000000    -3.680000000    -3.113000000
C    -6.290000000    -1.673000000    -2.398000000
O    -6.323000000    -1.975000000    -1.094000000
C    -5.410000000    -2.776000000    -0.465000000
C    -5.775000000    -3.137000000     0.835000000
H    -6.788000000    -2.939000000     1.174000000
C    -4.863000000    -3.753000000     1.702000000
O    -5.303000000    -3.826000000     2.988000000
C    -4.364000000    -3.717000000     4.010000000
C    -3.804000000    -2.473000000     4.335000000
H    -4.108000000    -1.651000000     3.692000000
C    -4.048000000    -4.851000000     4.745000000
H    -4.454000000    -5.769000000     4.328000000
C    -3.162000000    -4.856000000     5.866000000
H    -3.028000000    -5.744000000     6.479000000
C    -2.596000000    -3.615000000     6.167000000
H    -1.935000000    -3.577000000     7.029000000
C    -2.977000000    -2.421000000     5.455000000
O    -2.396000000    -1.254000000     5.694000000
C    -1.066000000    -0.998000000     5.558000000
C    -0.666000000     0.175000000     6.238000000
H    -1.314000000     0.718000000     6.921000000
C     0.587000000     0.738000000     5.930000000
O     0.831000000     1.986000000     6.514000000
C     1.630000000     2.966000000     5.943000000
C     2.756000000     3.393000000     6.719000000
H     3.048000000     2.798000000     7.581000000
C     3.513000000     4.444000000     6.248000000
H     4.340000000     4.900000000     6.786000000
C     3.146000000     5.192000000     5.110000000
H     3.744000000     5.990000000     4.677000000
C     2.025000000     4.850000000     4.394000000
C     1.194000000     3.838000000     4.895000000
H     0.190000000     3.705000000     4.501000000
C    -1.298000000     0.079000000     1.864000000
H    -2.110000000    -0.146000000     2.550000000
C    -0.895000000    -1.023000000     1.090000000
H    -1.289000000    -2.000000000     1.358000000
C     0.084000000    -0.809000000     0.052000000
H     0.538000000    -1.653000000    -0.511000000
C     0.541000000     0.445000000    -0.231000000
H     1.200000000     0.527000000    -1.091000000
C     0.010000000     1.492000000     0.520000000
H     0.465000000     2.458000000     0.316000000
C    -0.856000000     1.354000000     1.576000000
C    -1.526000000     2.588000000     2.209000000
O    -1.417000000     3.650000000     1.619000000
O    -2.142000000     2.481000000     3.269000000
O    -4.164000000     7.183000000     0.568000000
H    -4.134000000     7.241000000    -0.387000000
H    -3.279000000     6.916000000     0.819000000
O    -6.497000000     2.750000000     6.126000000
H    -6.216000000     1.919000000     5.742000000
H    -7.427000000     2.811000000     5.908000000
O    -2.078000000     3.413000000     7.466000000
H    -1.749000000     4.195000000     7.023000000
H    -2.532000000     2.923000000     6.780000000
O     0.514000000     6.038000000     7.058000000
H     1.234000000     6.061000000     6.428000000
H    -0.262000000     5.853000000     6.529000000
O    -3.352000000     4.942000000     3.512000000
H    -4.177000000     4.837000000     3.039000000
H    -2.872000000     4.133000000     3.340000000
O    -1.773000000     6.177000000     5.515000000
H    -2.277000000     5.792000000     4.799000000
H    -2.434000000     6.522000000     6.115000000
O    -5.400000000     1.844000000     0.591000000
H    -5.466000000     2.761000000     0.326000000
H    -4.558000000     1.553000000     0.239000000
O    -3.646000000     2.825000000     5.373000000
H    -2.986000000     2.687000000     4.694000000
H    -4.271000000     3.434000000     4.980000000
O    -5.896000000    -0.237000000     5.086000000
H    -5.300000000     0.272000000     4.536000000
H    -6.390000000    -0.776000000     4.468000000
O    -1.614000000     6.464000000     1.540000000
H    -1.063000000     7.040000000     2.070000000
H    -1.397000000     5.581000000     1.839000000
O    -2.915000000     0.765000000    -0.912000000
H    -2.367000000     0.017000000    -0.673000000
H    -2.682000000     0.950000000    -1.822000000
O    -6.349000000     5.355000000     0.400000000
H    -5.422000000     5.340000000     0.159000000
H    -6.493000000     6.236000000     0.744000000
O    -3.473000000     4.056000000     0.184000000
H    -2.627000000     4.024000000     0.632000000
H    -3.275000000     3.810000000    -0.720000000
O    -6.479000000     4.924000000     3.684000000
H    -6.586000000     4.668000000     2.768000000
H    -6.376000000     4.097000000     4.153000000
O    -1.028000000     8.316000000     3.848000000
H    -0.298000000     8.526000000     4.431000000
H    -1.478000000     7.591000000     4.281000000
O    -4.619000000     0.893000000     7.440000000
H    -4.432000000     1.558000000     6.776000000
H    -4.936000000     0.140000000     6.942000000
O    -7.700000000     0.511000000     0.279000000
H    -6.803000000     0.482000000    -0.056000000
H    -7.746000000     1.331000000     0.770000000
O    -4.452000000     1.065000000     3.051000000
H    -3.686000000     1.634000000     3.124000000
H    -4.819000000     1.266000000     2.189000000
O    -5.405000000     7.926000000     2.906000000
H    -4.861000000     7.524000000     2.228000000
H    -5.704000000     7.190000000     3.440000000
