215
-1431.78009
C    -4.573000000     0.290000000    -3.193000000
H    -4.267000000    -0.374000000    -3.998000000
C    -3.693000000     1.353000000    -2.829000000
C    -4.080000000     2.112000000    -1.636000000
H    -3.347000000     2.892000000    -1.448000000
C    -2.266000000     1.405000000    -3.410000000
O    -2.022000000     0.573000000    -4.602000000
H    -1.487000000     1.135000000    -2.682000000
O    -1.966000000     2.741000000    -3.783000000
C    -0.625000000     3.179000000    -3.513000000
C    -0.592000000     3.917000000    -2.310000000
H    -1.538000000     4.141000000    -1.823000000
C     0.661000000     4.300000000    -1.759000000
O     0.659000000     4.937000000    -0.576000000
C     1.834000000     3.932000000    -2.457000000
C     3.172000000     4.320000000    -1.887000000
H     3.948000000     4.326000000    -2.655000000
C     3.646000000     3.254000000    -0.929000000
C     4.389000000     2.122000000    -1.309000000
H     4.521000000     2.027000000    -2.383000000
H     3.145000000     5.355000000    -1.540000000
C     1.794000000     3.107000000    -3.581000000
H     2.723000000     2.811000000    -4.061000000
C     0.572000000     2.751000000    -4.108000000
C     0.512000000     1.815000000    -5.397000000
H     1.379000000     1.805000000    -6.061000000
H    -0.335000000     2.135000000    -6.007000000
C     0.334000000     0.271000000    -5.010000000
C     1.461000000    -0.574000000    -4.836000000
H     2.460000000    -0.296000000    -5.160000000
C    -0.922000000    -0.228000000    -4.625000000
C    -0.993000000    -1.502000000    -4.120000000
H    -1.921000000    -1.840000000    -3.666000000
C     0.092000000    -2.304000000    -3.908000000
O    -0.107000000    -3.483000000    -3.297000000
C     0.262000000    -3.553000000    -1.849000000
C    -0.810000000    -4.302000000    -1.045000000
C    -0.373000000    -4.898000000     0.086000000
H     0.697000000    -4.969000000     0.265000000
C    -2.144000000    -4.240000000    -1.334000000
H    -2.521000000    -3.791000000    -2.249000000
O     1.615000000    -4.142000000    -1.774000000
H     0.441000000    -2.543000000    -1.451000000
C     1.367000000    -1.858000000    -4.363000000
C     2.562000000    -2.726000000    -4.167000000
H     3.362000000    -2.486000000    -4.870000000
H     2.386000000    -3.775000000    -4.413000000
C     3.114000000    -2.483000000    -2.772000000
C     4.140000000    -1.576000000    -2.476000000
H     4.465000000    -0.874000000    -3.239000000
C     2.690000000    -3.280000000    -1.670000000
C     3.240000000    -3.138000000    -0.407000000
H     2.854000000    -3.784000000     0.377000000
C     4.209000000    -2.170000000    -0.170000000
O     4.670000000    -1.837000000     1.023000000
C     3.929000000    -0.780000000     1.633000000
C     3.427000000    -1.307000000     2.956000000
C     3.423000000    -2.699000000     3.229000000
H     3.824000000    -3.370000000     2.474000000
C     2.901000000    -0.469000000     3.966000000
H     2.878000000     0.603000000     3.784000000
O     4.675000000     0.423000000     1.800000000
H     3.033000000    -0.578000000     1.028000000
C     4.606000000    -1.350000000    -1.193000000
C     5.503000000    -0.088000000    -0.992000000
H     6.039000000     0.180000000    -1.905000000
H     6.327000000    -0.369000000    -0.333000000
C     4.772000000     1.137000000    -0.450000000
C     4.520000000     1.365000000     0.876000000
C     3.797000000     2.453000000     1.289000000
H     3.468000000     2.527000000     2.322000000
C     3.275000000     3.363000000     0.409000000
O     2.452000000     4.347000000     0.847000000
C     1.006000000     4.234000000     0.650000000
H     0.783000000     3.159000000     0.600000000
C     0.197000000     4.692000000     1.897000000
C    -1.066000000     5.337000000     1.729000000
H    -1.278000000     5.852000000     0.795000000
C     0.462000000     4.146000000     3.137000000
H     1.319000000     3.480000000     3.192000000
C    -0.365000000     4.459000000     4.194000000
O    -0.126000000     3.955000000     5.512000000
C    -1.511000000     5.245000000     4.069000000
H    -2.096000000     5.561000000     4.929000000
C    -1.912000000     5.538000000     2.785000000
O    -3.135000000     6.100000000     2.640000000
C    -3.957000000     5.633000000     1.578000000
C    -4.391000000     4.284000000     1.499000000
H    -4.265000000     3.576000000     2.314000000
C    -4.190000000     6.540000000     0.511000000
H    -3.891000000     7.584000000     0.541000000
C    -4.853000000     6.047000000    -0.598000000
H    -4.989000000     6.707000000    -1.451000000
C    -5.293000000     4.777000000    -0.681000000
H    -5.728000000     4.480000000    -1.632000000
C    -5.163000000     3.823000000     0.346000000
O    -5.625000000     2.518000000     0.227000000
C    -5.279000000     1.846000000    -0.937000000
C    -6.102000000     0.822000000    -1.387000000
H    -6.982000000     0.493000000    -0.838000000
C    -5.789000000     0.100000000    -2.511000000
O    -6.660000000    -0.905000000    -2.810000000
C    -6.298000000    -2.281000000    -2.884000000
C    -5.472000000    -2.831000000    -1.886000000
H    -5.055000000    -2.197000000    -1.107000000
C    -6.639000000    -3.072000000    -3.971000000
H    -7.326000000    -2.716000000    -4.735000000
C    -6.217000000    -4.475000000    -4.007000000
H    -6.379000000    -5.144000000    -4.849000000
C    -5.551000000    -5.055000000    -2.913000000
H    -5.235000000    -6.095000000    -2.937000000
C    -5.109000000    -4.211000000    -1.894000000
O    -4.457000000    -4.760000000    -0.739000000
C    -3.071000000    -4.767000000    -0.450000000
C    -2.676000000    -5.248000000     0.799000000
H    -3.494000000    -5.705000000     1.350000000
C    -1.299000000    -5.312000000     1.082000000
O    -0.984000000    -6.024000000     2.239000000
C     0.293000000    -6.261000000     2.673000000
C     1.000000000    -5.195000000     3.290000000
H     0.524000000    -4.220000000     3.353000000
C     0.750000000    -7.539000000     2.651000000
H     0.164000000    -8.342000000     2.212000000
C     1.959000000    -7.836000000     3.256000000
H     2.361000000    -8.842000000     3.167000000
C     2.755000000    -6.795000000     3.772000000
H     3.742000000    -6.978000000     4.188000000
C     2.242000000    -5.489000000     3.892000000
O     2.933000000    -4.579000000     4.623000000
C     2.964000000    -3.202000000     4.432000000
C     2.520000000    -2.375000000     5.435000000
H     2.391000000    -2.874000000     6.392000000
C     2.345000000    -1.032000000     5.167000000
O     2.046000000    -0.244000000     6.309000000
C     2.085000000     1.133000000     6.209000000
C     3.302000000     1.805000000     6.380000000
H     4.113000000     1.168000000     6.722000000
C     3.372000000     3.167000000     6.213000000
H     4.298000000     3.724000000     6.324000000
C     2.182000000     3.886000000     6.010000000
H     2.238000000     4.970000000     5.951000000
C     1.011000000     3.189000000     5.804000000
C     0.945000000     1.832000000     5.887000000
H     0.002000000     1.343000000     5.658000000
C    -0.523000000    -1.189000000     2.254000000
H    -0.382000000    -2.126000000     2.786000000
C     0.166000000    -1.153000000     1.038000000
H     0.844000000    -1.950000000     0.743000000
C     0.019000000    -0.042000000     0.243000000
H     0.670000000     0.282000000    -0.644000000
C    -0.755000000     1.013000000     0.649000000
H    -0.897000000     1.828000000    -0.056000000
C    -1.516000000     0.868000000     1.797000000
H    -2.299000000     1.615000000     1.903000000
C    -1.293000000    -0.105000000     2.719000000
C    -2.224000000    -0.174000000     3.992000000
O    -3.181000000     0.584000000     4.010000000
O    -1.972000000    -0.856000000     4.945000000
O    -3.422000000     4.175000000     7.468000000
H    -4.215000000     4.711000000     7.494000000
H    -3.596000000     3.523000000     6.789000000
O    -0.460000000     0.341000000     8.768000000
H     0.388000000    -0.100000000     8.821000000
H    -1.069000000    -0.346000000     8.496000000
O    -0.568000000    -2.036000000     6.933000000
H    -0.595000000    -2.952000000     6.655000000
H    -0.952000000    -1.553000000     6.201000000
O    -7.815000000     0.289000000     3.771000000
H    -8.039000000    -0.365000000     3.109000000
H    -8.653000000     0.689000000     4.006000000
O    -6.876000000    -4.153000000     2.884000000
H    -6.319000000    -3.519000000     2.434000000
H    -7.043000000    -4.832000000     2.229000000
O    -4.917000000     0.415000000     2.102000000
H    -4.324000000     0.448000000     2.852000000
H    -5.130000000     1.331000000     1.924000000
O    -4.171000000     2.695000000     5.184000000
H    -4.985000000     2.459000000     5.628000000
H    -3.950000000     1.924000000     4.662000000
O    -5.895000000     0.207000000     5.807000000
H    -5.181000000    -0.194000000     5.312000000
H    -6.669000000     0.078000000     5.260000000
O    -3.174000000    -1.139000000     0.339000000
H    -2.328000000    -0.695000000     0.288000000
H    -3.709000000    -0.571000000     0.893000000
O    -3.064000000    -5.560000000     5.063000000
H    -3.475000000    -4.787000000     4.677000000
H    -2.198000000    -5.258000000     5.340000000
O    -5.825000000    -1.373000000     8.096000000
H    -6.691000000    -1.776000000     8.148000000
H    -5.905000000    -0.724000000     7.396000000
O    -5.216000000    -3.625000000     6.687000000
H    -5.158000000    -2.764000000     7.102000000
H    -5.008000000    -3.463000000     5.767000000
O    -5.019000000    -2.645000000     1.715000000
H    -5.754000000    -2.047000000     1.576000000
H    -4.414000000    -2.450000000     1.000000000
O    -0.620000000    -4.776000000     5.838000000
H    -0.058000000    -5.393000000     5.369000000
H    -0.821000000    -5.215000000     6.665000000
O    -2.912000000     0.672000000     6.811000000
H    -2.677000000     1.526000000     6.448000000
H    -2.697000000     0.049000000     6.117000000
O     1.273000000    -2.179000000     8.878000000
H     1.449000000    -3.077000000     9.160000000
H     0.602000000    -2.268000000     8.200000000
O    -4.775000000     1.406000000     8.766000000
H    -4.088000000     0.944000000     8.286000000
H    -4.526000000     1.317000000     9.686000000
O    -3.221000000    -1.677000000     8.875000000
H    -3.194000000    -1.095000000     8.116000000
H    -4.154000000    -1.799000000     9.051000000
O    -4.147000000    -2.549000000     4.502000000
H    -3.327000000    -2.055000000     4.510000000
H    -4.492000000    -2.425000000     3.617000000
