215
-1429.32794
C    -4.718000000    -0.354000000    -3.098000000
H    -4.107000000    -1.167000000    -3.482000000
C    -4.085000000     0.888000000    -3.122000000
C    -4.722000000     1.897000000    -2.362000000
H    -4.265000000     2.867000000    -2.183000000
C    -2.665000000     1.023000000    -3.591000000
O    -2.266000000     0.173000000    -4.641000000
H    -2.273000000     0.566000000    -2.671000000
O    -2.243000000     2.353000000    -3.743000000
C    -0.978000000     2.779000000    -3.435000000
C    -0.907000000     3.539000000    -2.342000000
H    -1.805000000     3.683000000    -1.748000000
C     0.280000000     4.057000000    -1.869000000
O     0.235000000     4.701000000    -0.618000000
C     1.472000000     3.703000000    -2.546000000
C     2.754000000     4.223000000    -1.977000000
H     3.492000000     4.603000000    -2.687000000
C     3.407000000     3.343000000    -0.983000000
C     4.182000000     2.264000000    -1.472000000
H     4.327000000     2.182000000    -2.546000000
H     2.543000000     5.156000000    -1.451000000
C     1.416000000     2.905000000    -3.730000000
H     2.333000000     2.856000000    -4.311000000
C     0.215000000     2.368000000    -4.124000000
C     0.070000000     1.534000000    -5.370000000
H     0.890000000     1.647000000    -6.083000000
H    -0.881000000     1.631000000    -5.899000000
C     0.132000000     0.135000000    -4.926000000
C     1.384000000    -0.496000000    -4.825000000
H     2.297000000     0.057000000    -5.029000000
C    -1.017000000    -0.472000000    -4.530000000
C    -0.937000000    -1.750000000    -4.014000000
H    -1.868000000    -2.094000000    -3.570000000
C     0.243000000    -2.426000000    -3.966000000
O     0.315000000    -3.603000000    -3.273000000
C     0.749000000    -3.577000000    -1.900000000
C    -0.289000000    -4.241000000    -1.023000000
C    -0.013000000    -4.343000000     0.315000000
H     0.989000000    -4.101000000     0.660000000
C    -1.592000000    -4.424000000    -1.489000000
H    -1.883000000    -3.985000000    -2.440000000
O     2.083000000    -4.118000000    -1.690000000
H     0.804000000    -2.535000000    -1.553000000
C     1.441000000    -1.805000000    -4.376000000
C     2.769000000    -2.462000000    -4.105000000
H     3.572000000    -2.227000000    -4.807000000
H     2.573000000    -3.506000000    -4.356000000
C     3.350000000    -2.252000000    -2.703000000
C     4.206000000    -1.165000000    -2.550000000
H     4.324000000    -0.411000000    -3.323000000
C     3.102000000    -3.180000000    -1.642000000
C     3.760000000    -3.043000000    -0.422000000
H     3.508000000    -3.611000000     0.470000000
C     4.571000000    -1.896000000    -0.210000000
O     5.085000000    -1.701000000     1.065000000
C     4.349000000    -0.664000000     1.843000000
C     3.884000000    -1.005000000     3.272000000
C     3.678000000    -2.330000000     3.707000000
H     3.657000000    -3.121000000     2.963000000
C     3.766000000     0.006000000     4.241000000
H     4.018000000     1.017000000     3.931000000
O     5.020000000     0.536000000     1.757000000
H     3.466000000    -0.472000000     1.215000000
C     4.735000000    -0.944000000    -1.266000000
C     5.590000000     0.259000000    -0.998000000
H     6.208000000     0.503000000    -1.866000000
H     6.348000000     0.005000000    -0.255000000
C     4.774000000     1.439000000    -0.520000000
C     4.474000000     1.542000000     0.854000000
C     3.647000000     2.539000000     1.319000000
H     3.258000000     2.592000000     2.333000000
C     2.926000000     3.399000000     0.366000000
O     1.967000000     4.307000000     0.781000000
C     0.611000000     3.953000000     0.509000000
H     0.514000000     2.870000000     0.340000000
C    -0.279000000     4.147000000     1.717000000
C    -1.656000000     4.327000000     1.524000000
H    -2.002000000     4.519000000     0.512000000
C     0.255000000     4.032000000     3.046000000
H     1.336000000     3.973000000     3.138000000
C    -0.589000000     4.025000000     4.121000000
O    -0.148000000     4.009000000     5.464000000
C    -1.996000000     4.073000000     3.861000000
H    -2.659000000     3.967000000     4.716000000
C    -2.534000000     4.274000000     2.611000000
O    -3.919000000     4.415000000     2.499000000
C    -4.685000000     4.610000000     1.385000000
C    -5.280000000     3.528000000     0.730000000
H    -5.024000000     2.527000000     1.068000000
C    -4.916000000     5.915000000     0.965000000
H    -4.404000000     6.646000000     1.585000000
C    -5.760000000     6.109000000    -0.152000000
H    -5.967000000     7.103000000    -0.538000000
C    -6.276000000     5.012000000    -0.896000000
H    -6.853000000     5.163000000    -1.805000000
C    -6.031000000     3.751000000    -0.460000000
O    -6.601000000     2.627000000    -1.068000000
C    -5.906000000     1.618000000    -1.725000000
C    -6.456000000     0.356000000    -1.790000000
H    -7.399000000     0.050000000    -1.345000000
C    -5.924000000    -0.647000000    -2.470000000
O    -6.576000000    -1.898000000    -2.592000000
C    -5.868000000    -3.105000000    -2.831000000
C    -5.144000000    -3.742000000    -1.845000000
H    -4.767000000    -3.137000000    -1.024000000
C    -6.177000000    -3.719000000    -3.989000000
H    -6.882000000    -3.320000000    -4.714000000
C    -5.714000000    -5.046000000    -4.241000000
H    -6.024000000    -5.527000000    -5.165000000
C    -4.957000000    -5.686000000    -3.292000000
H    -4.557000000    -6.677000000    -3.491000000
C    -4.598000000    -5.036000000    -2.117000000
O    -3.757000000    -5.612000000    -1.224000000
C    -2.536000000    -5.094000000    -0.734000000
C    -2.255000000    -5.263000000     0.628000000
H    -3.083000000    -5.712000000     1.171000000
C    -0.982000000    -4.874000000     1.173000000
O    -0.778000000    -5.329000000     2.475000000
C     0.460000000    -5.461000000     3.023000000
C     1.076000000    -4.508000000     3.869000000
H     0.546000000    -3.597000000     4.133000000
C     1.187000000    -6.658000000     2.767000000
H     0.774000000    -7.420000000     2.110000000
C     2.444000000    -6.864000000     3.339000000
H     2.987000000    -7.801000000     3.244000000
C     3.037000000    -5.892000000     4.192000000
H     3.908000000    -6.147000000     4.789000000
C     2.401000000    -4.718000000     4.388000000
O     2.904000000    -3.939000000     5.429000000
C     3.321000000    -2.630000000     5.035000000
C     3.175000000    -1.614000000     5.923000000
H     2.822000000    -1.776000000     6.938000000
C     3.362000000    -0.263000000     5.515000000
O     3.191000000     0.685000000     6.459000000
C     2.835000000     1.976000000     6.223000000
C     3.761000000     2.946000000     6.551000000
H     4.732000000     2.670000000     6.953000000
C     3.448000000     4.291000000     6.427000000
H     4.156000000     5.105000000     6.558000000
C     2.169000000     4.630000000     5.992000000
H     1.824000000     5.655000000     5.882000000
C     1.169000000     3.628000000     5.740000000
C     1.566000000     2.296000000     5.810000000
H     0.845000000     1.500000000     5.643000000
C    -0.062000000    -0.069000000     2.078000000
H     0.530000000    -0.490000000     2.886000000
C     0.464000000     0.084000000     0.874000000
H     1.377000000    -0.404000000     0.544000000
C    -0.174000000     0.769000000    -0.140000000
H     0.326000000     0.691000000    -1.077000000
C    -1.520000000     1.158000000     0.056000000
H    -2.045000000     1.513000000    -0.827000000
C    -2.104000000     0.999000000     1.299000000
H    -3.092000000     1.327000000     1.610000000
C    -1.351000000     0.439000000     2.352000000
C    -1.837000000     0.153000000     3.784000000
O    -2.997000000     0.370000000     4.011000000
O    -1.125000000    -0.406000000     4.600000000
O    -3.002000000     4.374000000     7.644000000
H    -2.892000000     3.464000000     7.369000000
H    -3.507000000     4.778000000     6.938000000
O    -1.595000000    -2.987000000     8.852000000
H    -1.423000000    -3.102000000     7.917000000
H    -2.528000000    -2.776000000     8.899000000
O     0.236000000    -1.094000000     6.796000000
H    -0.028000000    -1.993000000     6.994000000
H    -0.046000000    -0.956000000     5.892000000
O    -6.578000000     1.149000000     3.094000000
H    -6.752000000     0.246000000     3.361000000
H    -7.395000000     1.442000000     2.691000000
O    -3.989000000    -1.531000000     2.132000000
H    -3.200000000    -1.867000000     2.557000000
H    -4.250000000    -0.782000000     2.668000000
O    -4.988000000     2.437000000     5.069000000
H    -5.592000000     2.484000000     4.328000000
H    -4.339000000     1.783000000     4.808000000
O    -7.074000000    -1.207000000     6.755000000
H    -7.271000000    -2.138000000     6.650000000
H    -6.282000000    -1.070000000     6.234000000
O    -6.007000000    -3.098000000     2.707000000
H    -5.259000000    -2.604000000     2.370000000
H    -6.748000000    -2.799000000     2.179000000
O    -2.436000000    -2.043000000     0.109000000
H    -1.676000000    -1.468000000     0.191000000
H    -3.102000000    -1.641000000     0.667000000
O    -5.303000000     4.937000000     5.862000000
H    -6.238000000     4.947000000     6.070000000
H    -5.111000000     4.020000000     5.665000000
O    -7.421000000    -1.761000000     0.713000000
H    -8.030000000    -1.072000000     0.447000000
H    -6.615000000    -1.296000000     0.935000000
O    -4.908000000    -1.088000000     5.016000000
H    -4.575000000    -1.871000000     4.577000000
H    -4.201000000    -0.448000000     4.934000000
O    -4.573000000    -5.526000000     6.051000000
H    -4.715000000    -4.596000000     5.875000000
H    -3.769000000    -5.739000000     5.577000000
O     0.053000000     1.211000000     8.257000000
H    -0.737000000     1.662000000     7.962000000
H     0.254000000     0.594000000     7.554000000
O    -2.490000000    -3.089000000     3.704000000
H    -2.008000000    -2.795000000     4.477000000
H    -1.905000000    -3.719000000     3.283000000
O    -1.033000000    -4.172000000     6.344000000
H    -0.316000000    -4.664000000     6.745000000
H    -1.516000000    -4.823000000     5.836000000
O    -2.276000000     1.823000000     6.771000000
H    -2.506000000     0.952000000     7.093000000
H    -2.374000000     1.762000000     5.821000000
O    -7.627000000     1.285000000     6.444000000
H    -7.686000000     0.365000000     6.701000000
H    -6.725000000     1.391000000     6.141000000
O    -4.334000000    -2.225000000     8.603000000
H    -4.572000000    -1.534000000     9.221000000
H    -5.112000000    -2.335000000     8.056000000
