215
-1463.80301
C    -4.319000000    -0.904000000    -2.822000000
H    -3.615000000    -1.693000000    -3.075000000
C    -3.926000000     0.433000000    -2.886000000
C    -4.747000000     1.414000000    -2.304000000
H    -4.345000000     2.423000000    -2.346000000
C    -2.514000000     0.802000000    -3.436000000
O    -2.183000000    -0.014000000    -4.606000000
H    -1.827000000     0.593000000    -2.602000000
O    -2.470000000     2.192000000    -3.813000000
C    -1.339000000     2.907000000    -3.606000000
C    -1.405000000     3.838000000    -2.603000000
H    -2.364000000     3.877000000    -2.092000000
C    -0.296000000     4.448000000    -2.042000000
O    -0.464000000     5.186000000    -0.876000000
C     1.014000000     4.141000000    -2.569000000
C     2.306000000     4.639000000    -2.019000000
H     3.062000000     4.667000000    -2.805000000
C     2.822000000     3.749000000    -0.908000000
C     3.900000000     2.844000000    -1.242000000
H     4.320000000     2.901000000    -2.243000000
H     2.153000000     5.690000000    -1.764000000
C     1.021000000     3.252000000    -3.695000000
H     1.955000000     3.033000000    -4.207000000
C    -0.108000000     2.631000000    -4.202000000
C     0.096000000     1.673000000    -5.384000000
H     0.962000000     1.914000000    -6.004000000
H    -0.750000000     1.630000000    -6.074000000
C     0.307000000     0.277000000    -4.790000000
C     1.580000000    -0.335000000    -4.628000000
H     2.437000000     0.240000000    -4.968000000
C    -0.867000000    -0.528000000    -4.474000000
C    -0.683000000    -1.784000000    -3.979000000
H    -1.504000000    -2.438000000    -3.698000000
C     0.567000000    -2.304000000    -3.735000000
O     0.578000000    -3.538000000    -3.125000000
C     1.014000000    -3.461000000    -1.735000000
C     0.139000000    -4.379000000    -0.867000000
C     0.676000000    -4.875000000     0.350000000
H     1.720000000    -4.663000000     0.564000000
C    -1.199000000    -4.691000000    -1.163000000
H    -1.601000000    -4.214000000    -2.054000000
O     2.390000000    -3.865000000    -1.656000000
H     0.901000000    -2.465000000    -1.283000000
C     1.726000000    -1.593000000    -4.141000000
C     3.107000000    -2.208000000    -3.967000000
H     3.783000000    -1.831000000    -4.737000000
H     3.042000000    -3.278000000    -4.177000000
C     3.655000000    -1.958000000    -2.601000000
C     4.370000000    -0.827000000    -2.287000000
H     4.606000000    -0.200000000    -3.143000000
C     3.369000000    -2.809000000    -1.504000000
C     3.878000000    -2.592000000    -0.264000000
H     3.524000000    -3.261000000     0.516000000
C     4.567000000    -1.415000000     0.074000000
O     4.844000000    -1.096000000     1.387000000
C     3.818000000    -0.365000000     2.048000000
C     3.455000000    -0.841000000     3.404000000
C     3.620000000    -2.135000000     3.847000000
H     4.084000000    -2.844000000     3.166000000
C     2.956000000     0.107000000     4.340000000
H     2.914000000     1.142000000     4.012000000
O     4.146000000     1.063000000     2.057000000
H     2.945000000    -0.504000000     1.393000000
C     4.735000000    -0.456000000    -0.977000000
C     5.357000000     0.862000000    -0.612000000
H     5.892000000     1.193000000    -1.505000000
H     6.120000000     0.676000000     0.147000000
C     4.326000000     1.907000000    -0.260000000
C     3.782000000     1.911000000     1.032000000
C     2.851000000     2.880000000     1.331000000
H     2.364000000     2.956000000     2.300000000
C     2.321000000     3.768000000     0.374000000
O     1.359000000     4.666000000     0.704000000
C     0.061000000     4.450000000     0.279000000
H    -0.071000000     3.411000000    -0.060000000
C    -0.875000000     4.579000000     1.487000000
C    -2.238000000     4.659000000     1.286000000
H    -2.506000000     4.578000000     0.236000000
C    -0.421000000     4.436000000     2.814000000
H     0.629000000     4.245000000     3.022000000
C    -1.295000000     4.311000000     3.895000000
O    -0.882000000     4.073000000     5.211000000
C    -2.660000000     4.473000000     3.641000000
H    -3.418000000     4.436000000     4.420000000
C    -3.126000000     4.632000000     2.370000000
O    -4.514000000     4.631000000     2.128000000
C    -5.111000000     4.644000000     0.899000000
C    -5.500000000     3.381000000     0.513000000
H    -5.131000000     2.515000000     1.057000000
C    -5.339000000     5.751000000     0.146000000
H    -4.947000000     6.741000000     0.368000000
C    -6.150000000     5.656000000    -0.963000000
H    -6.433000000     6.551000000    -1.511000000
C    -6.548000000     4.382000000    -1.354000000
H    -6.965000000     4.244000000    -2.348000000
C    -6.182000000     3.239000000    -0.627000000
O    -6.612000000     2.037000000    -0.924000000
C    -5.857000000     1.088000000    -1.604000000
C    -6.315000000    -0.252000000    -1.668000000
H    -7.274000000    -0.466000000    -1.204000000
C    -5.512000000    -1.231000000    -2.234000000
O    -5.948000000    -2.463000000    -2.261000000
C    -5.128000000    -3.536000000    -2.488000000
C    -4.524000000    -4.339000000    -1.537000000
H    -4.574000000    -4.024000000    -0.498000000
C    -5.057000000    -3.998000000    -3.790000000
H    -5.671000000    -3.409000000    -4.467000000
C    -4.398000000    -5.108000000    -4.161000000
H    -4.521000000    -5.576000000    -5.135000000
C    -3.710000000    -5.838000000    -3.173000000
H    -3.254000000    -6.786000000    -3.445000000
C    -3.788000000    -5.465000000    -1.833000000
O    -3.060000000    -6.176000000    -0.886000000
C    -1.869000000    -5.675000000    -0.417000000
C    -1.275000000    -6.285000000     0.698000000
H    -1.787000000    -7.163000000     1.086000000
C    -0.027000000    -5.837000000     1.060000000
O     0.389000000    -6.297000000     2.300000000
C     1.601000000    -6.096000000     2.852000000
C     1.808000000    -5.043000000     3.787000000
H     0.987000000    -4.439000000     4.162000000
C     2.726000000    -6.900000000     2.522000000
H     2.647000000    -7.770000000     1.875000000
C     3.990000000    -6.628000000     3.151000000
H     4.858000000    -7.261000000     2.982000000
C     4.108000000    -5.719000000     4.226000000
H     5.004000000    -5.831000000     4.830000000
C     3.057000000    -4.910000000     4.475000000
O     3.358000000    -3.909000000     5.432000000
C     3.193000000    -2.539000000     5.118000000
C     2.696000000    -1.583000000     6.039000000
H     2.341000000    -1.906000000     7.014000000
C     2.601000000    -0.272000000     5.640000000
O     2.086000000     0.655000000     6.571000000
C     1.876000000     1.952000000     6.175000000
C     2.819000000     2.921000000     6.482000000
H     3.779000000     2.676000000     6.928000000
C     2.527000000     4.290000000     6.311000000
H     3.313000000     5.025000000     6.458000000
C     1.298000000     4.682000000     5.797000000
H     1.110000000     5.686000000     5.425000000
C     0.356000000     3.651000000     5.477000000
C     0.565000000     2.320000000     5.759000000
H    -0.160000000     1.513000000     5.691000000
C    -0.288000000    -1.181000000     2.411000000
H     0.082000000    -1.958000000     3.075000000
C     0.225000000    -1.134000000     1.064000000
H     0.901000000    -1.918000000     0.734000000
C    -0.048000000     0.010000000     0.260000000
H     0.250000000     0.146000000    -0.773000000
C    -1.011000000     0.946000000     0.752000000
H    -1.443000000     1.686000000     0.083000000
C    -1.503000000     0.835000000     2.084000000
H    -2.151000000     1.577000000     2.541000000
C    -1.202000000    -0.274000000     2.930000000
C    -1.624000000    -0.302000000     4.396000000
O    -2.491000000     0.494000000     4.730000000
O    -1.296000000    -1.235000000     5.134000000
O    -0.846000000    -2.074000000     7.551000000
H    -0.220000000    -2.726000000     7.237000000
H    -1.057000000    -1.552000000     6.776000000
O    -5.602000000    -2.061000000     6.931000000
H    -4.810000000    -2.527000000     7.202000000
H    -5.366000000    -1.655000000     6.097000000
O    -7.052000000     0.527000000     3.219000000
H    -7.058000000    -0.430000000     3.229000000
H    -7.814000000     0.766000000     2.690000000
O    -5.222000000    -0.667000000     1.323000000
H    -5.287000000    -1.465000000     1.849000000
H    -5.850000000    -0.066000000     1.723000000
O    -4.938000000     1.654000000     4.822000000
H    -5.440000000     0.968000000     4.383000000
H    -4.030000000     1.355000000     4.774000000
O    -4.686000000     0.034000000     8.582000000
H    -4.834000000    -0.801000000     8.137000000
H    -5.306000000     0.029000000     9.312000000
O    -4.276000000    -1.801000000     4.553000000
H    -3.784000000    -2.548000000     4.211000000
H    -3.801000000    -1.034000000     4.233000000
O    -3.829000000    -3.840000000     2.166000000
H    -3.410000000    -3.163000000     1.635000000
H    -3.281000000    -3.905000000     2.948000000
O    -2.831000000    -1.788000000     0.541000000
H    -3.574000000    -1.220000000     0.744000000
H    -2.067000000    -1.303000000     0.852000000
O    -5.946000000     2.301000000     7.510000000
H    -5.673000000     1.584000000     8.083000000
H    -5.494000000     2.132000000     6.683000000
O    -3.379000000    -3.238000000     7.707000000
H    -3.122000000    -3.693000000     6.906000000
H    -2.768000000    -2.504000000     7.773000000
O    -4.900000000    -5.496000000     5.647000000
H    -5.389000000    -5.165000000     4.894000000
H    -4.892000000    -4.767000000     6.267000000
O     0.658000000    -0.864000000     9.629000000
H     0.290000000     0.020000000     9.635000000
H     0.366000000    -1.239000000     8.798000000
O    -2.150000000    -3.705000000     4.674000000
H    -1.728000000    -2.888000000     4.940000000
H    -1.714000000    -4.381000000     5.193000000
O     0.699000000    -4.395000000     6.994000000
H     1.638000000    -4.492000000     7.155000000
H     0.395000000    -5.283000000     6.806000000
O    -1.626000000     5.383000000     7.914000000
H    -1.493000000     4.676000000     7.283000000
H    -2.284000000     5.042000000     8.520000000
O    -2.495000000     1.484000000     7.276000000
H    -3.155000000     0.889000000     7.633000000
H    -2.337000000     1.161000000     6.389000000
O    -2.816000000     2.384000000     9.768000000
H    -2.484000000     2.395000000     8.870000000
H    -3.033000000     1.466000000     9.932000000
O    -0.081000000     1.667000000     8.929000000
H    -0.746000000     1.319000000     8.336000000
H     0.670000000     1.853000000     8.365000000
