215
-1463.83059
C    -4.069000000    -2.264000000    -2.655000000
H    -3.572000000    -2.844000000    -3.428000000
C    -3.674000000    -0.938000000    -2.514000000
C    -4.410000000    -0.136000000    -1.649000000
H    -4.283000000     0.944000000    -1.670000000
C    -2.539000000    -0.327000000    -3.335000000
O    -2.116000000    -1.333000000    -4.227000000
H    -1.767000000    -0.161000000    -2.569000000
O    -2.739000000     0.874000000    -4.104000000
C    -1.825000000     1.825000000    -3.993000000
C    -1.916000000     2.710000000    -2.887000000
H    -2.720000000     2.653000000    -2.157000000
C    -0.920000000     3.623000000    -2.665000000
O    -1.158000000     4.402000000    -1.609000000
C     0.275000000     3.593000000    -3.375000000
C     1.380000000     4.564000000    -3.045000000
H     1.984000000     4.556000000    -3.954000000
C     2.158000000     4.017000000    -1.820000000
C     3.328000000     3.315000000    -2.037000000
H     3.716000000     3.223000000    -3.048000000
H     1.002000000     5.552000000    -2.773000000
C     0.444000000     2.554000000    -4.275000000
H     1.412000000     2.297000000    -4.699000000
C    -0.589000000     1.668000000    -4.647000000
C    -0.349000000     0.565000000    -5.639000000
H     0.337000000     0.937000000    -6.403000000
H    -1.254000000     0.364000000    -6.216000000
C     0.115000000    -0.719000000    -4.986000000
C     1.538000000    -0.962000000    -4.892000000
H     2.166000000    -0.171000000    -5.294000000
C    -0.772000000    -1.607000000    -4.423000000
C    -0.281000000    -2.769000000    -3.799000000
H    -0.981000000    -3.342000000    -3.197000000
C     1.063000000    -2.934000000    -3.617000000
O     1.424000000    -4.013000000    -2.787000000
C     1.804000000    -3.689000000    -1.407000000
C     1.228000000    -4.764000000    -0.423000000
C     1.819000000    -4.987000000     0.838000000
H     2.813000000    -4.575000000     0.992000000
C     0.009000000    -5.400000000    -0.683000000
H    -0.332000000    -5.248000000    -1.703000000
O     3.270000000    -3.566000000    -1.385000000
H     1.326000000    -2.719000000    -1.201000000
C     2.002000000    -2.026000000    -4.158000000
C     3.531000000    -2.166000000    -3.827000000
H     4.083000000    -1.661000000    -4.623000000
H     3.784000000    -3.228000000    -3.848000000
C     3.959000000    -1.582000000    -2.514000000
C     4.281000000    -0.243000000    -2.431000000
H     4.147000000     0.424000000    -3.279000000
C     3.884000000    -2.315000000    -1.367000000
C     4.225000000    -1.775000000    -0.169000000
H     3.997000000    -2.319000000     0.744000000
C     4.618000000    -0.419000000    -0.016000000
O     4.610000000     0.126000000     1.219000000
C     3.730000000     1.100000000     1.656000000
C     3.456000000     0.932000000     3.145000000
C     3.091000000    -0.376000000     3.620000000
H     3.134000000    -1.212000000     2.926000000
C     3.379000000     1.954000000     4.109000000
H     3.489000000     2.999000000     3.830000000
O     4.200000000     2.488000000     1.447000000
H     2.786000000     1.002000000     1.100000000
C     4.685000000     0.342000000    -1.224000000
C     5.181000000     1.724000000    -1.159000000
H     5.580000000     1.945000000    -2.151000000
H     5.951000000     1.888000000    -0.401000000
C     3.997000000     2.691000000    -0.973000000
C     3.634000000     3.042000000     0.359000000
C     2.635000000     3.956000000     0.596000000
H     2.562000000     4.392000000     1.589000000
C     1.811000000     4.354000000    -0.473000000
O     0.646000000     4.962000000    -0.156000000
C    -0.541000000     4.117000000    -0.366000000
H    -0.347000000     3.037000000    -0.284000000
C    -1.522000000     4.458000000     0.762000000
C    -2.901000000     4.520000000     0.524000000
H    -3.263000000     4.480000000    -0.500000000
C    -1.145000000     4.282000000     2.110000000
H    -0.139000000     3.983000000     2.393000000
C    -2.002000000     4.565000000     3.208000000
O    -1.622000000     4.576000000     4.517000000
C    -3.325000000     4.751000000     2.904000000
H    -4.038000000     4.916000000     3.708000000
C    -3.801000000     4.673000000     1.590000000
O    -5.171000000     4.717000000     1.335000000
C    -5.888000000     3.729000000     0.784000000
C    -5.479000000     2.455000000     0.761000000
H    -4.569000000     2.168000000     1.281000000
C    -7.067000000     4.030000000     0.168000000
H    -7.342000000     5.061000000    -0.038000000
C    -7.931000000     3.064000000    -0.256000000
H    -8.884000000     3.305000000    -0.720000000
C    -7.490000000     1.707000000    -0.345000000
H    -8.076000000     0.970000000    -0.888000000
C    -6.228000000     1.370000000     0.166000000
O    -5.887000000     0.021000000     0.276000000
C    -5.331000000    -0.727000000    -0.753000000
C    -5.500000000    -2.123000000    -0.704000000
H    -6.164000000    -2.551000000     0.043000000
C    -4.971000000    -2.829000000    -1.808000000
O    -5.334000000    -4.123000000    -1.792000000
C    -4.406000000    -5.095000000    -1.940000000
C    -3.719000000    -5.566000000    -0.821000000
H    -3.871000000    -5.144000000     0.169000000
C    -4.241000000    -5.816000000    -3.137000000
H    -4.855000000    -5.551000000    -3.993000000
C    -3.325000000    -6.912000000    -3.234000000
H    -3.153000000    -7.501000000    -4.131000000
C    -2.532000000    -7.178000000    -2.163000000
H    -1.756000000    -7.926000000    -2.302000000
C    -2.677000000    -6.408000000    -0.961000000
O    -1.924000000    -6.704000000     0.170000000
C    -0.672000000    -6.142000000     0.293000000
C    -0.004000000    -6.334000000     1.520000000
H    -0.475000000    -6.978000000     2.258000000
C     1.195000000    -5.717000000     1.786000000
O     1.853000000    -5.998000000     3.008000000
C     2.564000000    -5.056000000     3.712000000
C     2.001000000    -3.921000000     4.202000000
H     0.973000000    -3.597000000     4.061000000
C     3.924000000    -5.271000000     3.771000000
H     4.292000000    -6.184000000     3.310000000
C     4.791000000    -4.244000000     4.259000000
H     5.858000000    -4.307000000     4.456000000
C     4.239000000    -3.087000000     4.809000000
H     4.886000000    -2.310000000     5.206000000
C     2.826000000    -2.971000000     4.826000000
O     2.262000000    -1.855000000     5.308000000
C     2.654000000    -0.646000000     4.924000000
C     2.483000000     0.414000000     5.827000000
H     2.106000000     0.223000000     6.829000000
C     2.862000000     1.688000000     5.417000000
O     2.580000000     2.746000000     6.276000000
C     1.853000000     3.792000000     5.766000000
C     2.371000000     5.055000000     5.812000000
H     3.369000000     5.122000000     6.238000000
C     1.642000000     6.136000000     5.384000000
H     2.177000000     7.082000000     5.425000000
C     0.275000000     6.015000000     5.010000000
H    -0.249000000     6.888000000     4.629000000
C    -0.249000000     4.705000000     4.887000000
C     0.491000000     3.614000000     5.417000000
H     0.069000000     2.613000000     5.379000000
C    -1.046000000    -1.499000000     2.202000000
H    -1.065000000    -2.022000000     3.155000000
C     0.064000000    -1.641000000     1.293000000
H     0.858000000    -2.337000000     1.552000000
C     0.222000000    -0.822000000     0.148000000
H     1.039000000    -1.026000000    -0.545000000
C    -0.687000000     0.245000000     0.011000000
H    -0.708000000     0.873000000    -0.876000000
C    -1.790000000     0.359000000     0.867000000
H    -2.507000000     1.138000000     0.620000000
C    -1.947000000    -0.499000000     1.929000000
C    -3.018000000    -0.308000000     2.968000000
O    -3.577000000     0.773000000     3.241000000
O    -3.378000000    -1.317000000     3.600000000
O    -0.914000000    -0.280000000     6.403000000
H    -0.511000000    -0.563000000     7.223000000
H    -0.647000000    -0.941000000     5.764000000
O    -2.759000000     1.936000000     5.294000000
H    -2.124000000     1.301000000     5.623000000
H    -2.953000000     1.643000000     4.404000000
O    -7.082000000     3.061000000     6.781000000
H    -7.079000000     2.432000000     7.503000000
H    -6.556000000     2.645000000     6.099000000
O    -7.353000000    -1.929000000     6.197000000
H    -7.254000000    -1.370000000     5.427000000
H    -7.058000000    -1.385000000     6.927000000
O    -5.244000000    -4.861000000     4.508000000
H    -5.929000000    -5.033000000     5.154000000
H    -5.535000000    -4.069000000     4.056000000
O    -7.815000000    -3.820000000     2.108000000
H    -8.315000000    -3.059000000     1.812000000
H    -6.930000000    -3.483000000     2.251000000
O    -5.851000000     2.256000000     3.873000000
H    -5.941000000     3.078000000     3.392000000
H    -4.939000000     1.999000000     3.740000000
O    -3.151000000     3.165000000     7.857000000
H    -3.368000000     2.975000000     6.944000000
H    -2.251000000     2.856000000     7.958000000
O    -2.396000000    -3.825000000     4.251000000
H    -2.663000000    -2.910000000     4.162000000
H    -3.209000000    -4.294000000     4.441000000
O    -3.715000000    -2.661000000     9.870000000
H    -3.726000000    -2.457000000     8.935000000
H    -2.982000000    -3.267000000     9.975000000
O    -5.483000000    -2.567000000     2.825000000
H    -6.013000000    -1.826000000     3.118000000
H    -4.596000000    -2.358000000     3.119000000
O    -3.990000000    -7.201000000     3.893000000
H    -3.701000000    -7.486000000     4.760000000
H    -4.325000000    -6.315000000     4.031000000
O    -3.406000000    -1.974000000     7.219000000
H    -2.726000000    -1.318000000     7.371000000
H    -3.823000000    -1.701000000     6.402000000
O    -4.708000000     0.137000000     6.049000000
H    -4.193000000     0.940000000     5.967000000
H    -4.661000000    -0.267000000     5.183000000
O    -6.921000000    -0.509000000     3.463000000
H    -7.790000000    -0.217000000     3.188000000
H    -6.378000000     0.278000000     3.415000000
O    -6.663000000     0.404000000     7.979000000
H    -6.168000000     0.601000000     8.775000000
H    -6.013000000     0.439000000     7.278000000
O    -9.762000000    -2.324000000     4.261000000
H   -10.012000000    -2.990000000     4.902000000
H    -8.810000000    -2.401000000     4.194000000
O    -7.391000000    -4.566000000     6.569000000
H    -7.313000000    -3.651000000     6.299000000
H    -6.967000000    -4.600000000     7.426000000
O    -0.609000000    -5.539000000     5.044000000
H     0.074000000    -5.604000000     4.378000000
H    -1.193000000    -4.852000000     4.722000000
