215
-1461.10120
C    -4.037000000    -2.195000000    -2.924000000
H    -3.362000000    -2.846000000    -3.474000000
C    -3.720000000    -0.805000000    -2.895000000
C    -4.502000000     0.072000000    -2.136000000
H    -4.197000000     1.113000000    -2.069000000
C    -2.436000000    -0.296000000    -3.484000000
O    -1.943000000    -1.176000000    -4.485000000
H    -1.856000000    -0.302000000    -2.549000000
O    -2.517000000     0.992000000    -4.087000000
C    -1.527000000     1.975000000    -3.943000000
C    -1.771000000     2.951000000    -2.952000000
H    -2.758000000     3.034000000    -2.504000000
C    -0.698000000     3.764000000    -2.578000000
O    -0.900000000     4.596000000    -1.478000000
C     0.553000000     3.575000000    -3.122000000
C     1.854000000     4.397000000    -2.701000000
H     2.542000000     4.342000000    -3.548000000
C     2.455000000     3.735000000    -1.489000000
C     3.628000000     3.044000000    -1.633000000
H     4.026000000     2.664000000    -2.571000000
H     1.692000000     5.461000000    -2.518000000
C     0.697000000     2.630000000    -4.133000000
H     1.695000000     2.569000000    -4.558000000
C    -0.308000000     1.741000000    -4.517000000
C    -0.024000000     0.737000000    -5.610000000
H     0.828000000     1.143000000    -6.158000000
H    -0.837000000     0.543000000    -6.313000000
C     0.392000000    -0.558000000    -4.981000000
C     1.715000000    -0.770000000    -4.597000000
H     2.425000000     0.011000000    -4.858000000
C    -0.608000000    -1.501000000    -4.538000000
C    -0.210000000    -2.653000000    -3.766000000
H    -0.970000000    -3.214000000    -3.229000000
C     1.170000000    -2.875000000    -3.583000000
O     1.498000000    -3.874000000    -2.695000000
C     1.611000000    -3.628000000    -1.231000000
C     0.919000000    -4.651000000    -0.364000000
C     1.431000000    -4.906000000     0.900000000
H     2.342000000    -4.397000000     1.206000000
C    -0.235000000    -5.245000000    -0.792000000
H    -0.674000000    -4.983000000    -1.751000000
O     3.082000000    -3.593000000    -0.933000000
H     1.156000000    -2.642000000    -1.053000000
C     2.118000000    -1.937000000    -3.902000000
C     3.630000000    -2.092000000    -3.502000000
H     4.157000000    -1.476000000    -4.234000000
H     3.943000000    -3.133000000    -3.599000000
C     3.964000000    -1.671000000    -2.066000000
C     4.652000000    -0.487000000    -1.963000000
H     4.744000000     0.239000000    -2.766000000
C     3.783000000    -2.377000000    -0.900000000
C     3.995000000    -1.825000000     0.342000000
H     3.735000000    -2.391000000     1.232000000
C     4.583000000    -0.535000000     0.444000000
O     4.719000000    -0.058000000     1.712000000
C     3.656000000     0.821000000     2.064000000
C     3.217000000     0.610000000     3.498000000
C     2.940000000    -0.714000000     3.945000000
H     3.238000000    -1.562000000     3.334000000
C     2.883000000     1.706000000     4.288000000
H     3.081000000     2.712000000     3.926000000
O     4.173000000     2.098000000     1.896000000
H     2.826000000     0.595000000     1.379000000
C     4.938000000     0.102000000    -0.735000000
C     5.461000000     1.550000000    -0.646000000
H     6.152000000     1.643000000    -1.487000000
H     6.199000000     1.692000000     0.146000000
C     4.250000000     2.516000000    -0.476000000
C     3.719000000     2.782000000     0.781000000
C     2.584000000     3.650000000     0.865000000
H     2.149000000     3.830000000     1.845000000
C     1.917000000     4.005000000    -0.246000000
O     0.743000000     4.750000000     0.051000000
C    -0.495000000     4.183000000    -0.171000000
H    -0.433000000     3.086000000    -0.131000000
C    -1.535000000     4.622000000     0.867000000
C    -2.900000000     4.404000000     0.644000000
H    -3.240000000     4.110000000    -0.346000000
C    -1.103000000     4.834000000     2.185000000
H    -0.043000000     5.058000000     2.265000000
C    -2.020000000     4.878000000     3.250000000
O    -1.636000000     5.144000000     4.584000000
C    -3.415000000     4.830000000     2.990000000
H    -4.214000000     4.969000000     3.713000000
C    -3.847000000     4.632000000     1.658000000
O    -5.234000000     4.604000000     1.521000000
C    -5.909000000     3.874000000     0.563000000
C    -5.666000000     2.473000000     0.504000000
H    -5.174000000     1.969000000     1.332000000
C    -6.551000000     4.578000000    -0.412000000
H    -6.783000000     5.637000000    -0.328000000
C    -7.127000000     3.843000000    -1.484000000
H    -7.734000000     4.299000000    -2.261000000
C    -6.983000000     2.478000000    -1.500000000
H    -7.512000000     1.912000000    -2.262000000
C    -6.246000000     1.779000000    -0.513000000
O    -6.176000000     0.399000000    -0.497000000
C    -5.539000000    -0.460000000    -1.317000000
C    -5.798000000    -1.839000000    -1.315000000
H    -6.511000000    -2.373000000    -0.692000000
C    -5.105000000    -2.693000000    -2.149000000
O    -5.385000000    -4.057000000    -2.239000000
C    -4.357000000    -4.971000000    -2.296000000
C    -3.698000000    -5.443000000    -1.184000000
H    -3.779000000    -4.947000000    -0.220000000
C    -4.132000000    -5.614000000    -3.573000000
H    -4.781000000    -5.283000000    -4.379000000
C    -3.224000000    -6.602000000    -3.757000000
H    -3.003000000    -7.003000000    -4.744000000
C    -2.449000000    -6.967000000    -2.694000000
H    -1.609000000    -7.629000000    -2.890000000
C    -2.687000000    -6.428000000    -1.419000000
O    -1.917000000    -6.856000000    -0.414000000
C    -0.841000000    -6.213000000     0.009000000
C    -0.279000000    -6.547000000     1.221000000
H    -0.731000000    -7.325000000     1.832000000
C     0.788000000    -5.848000000     1.693000000
O     1.176000000    -6.157000000     2.965000000
C     2.075000000    -5.392000000     3.665000000
C     1.632000000    -4.223000000     4.339000000
H     0.557000000    -4.061000000     4.352000000
C     3.418000000    -5.676000000     3.625000000
H     3.768000000    -6.561000000     3.101000000
C     4.390000000    -4.904000000     4.298000000
H     5.415000000    -5.248000000     4.409000000
C     3.885000000    -3.760000000     4.958000000
H     4.444000000    -3.095000000     5.611000000
C     2.496000000    -3.404000000     4.943000000
O     2.079000000    -2.286000000     5.668000000
C     2.287000000    -0.987000000     5.170000000
C     1.952000000     0.131000000     5.947000000
H     1.542000000    -0.029000000     6.941000000
C     2.280000000     1.413000000     5.563000000
O     1.974000000     2.502000000     6.378000000
C     1.529000000     3.735000000     5.908000000
C     2.394000000     4.780000000     5.743000000
H     3.422000000     4.688000000     6.083000000
C     1.875000000     6.008000000     5.327000000
H     2.497000000     6.879000000     5.139000000
C     0.515000000     6.179000000     4.957000000
H     0.068000000     7.117000000     4.638000000
C    -0.324000000     5.038000000     5.036000000
C     0.237000000     3.806000000     5.453000000
H    -0.381000000     2.938000000     5.668000000
C    -0.417000000    -0.722000000     2.483000000
H    -0.042000000    -0.985000000     3.469000000
C     0.384000000    -0.910000000     1.338000000
H     1.346000000    -1.406000000     1.432000000
C     0.073000000    -0.210000000     0.155000000
H     0.751000000    -0.136000000    -0.706000000
C    -1.127000000     0.510000000     0.069000000
H    -1.455000000     1.064000000    -0.807000000
C    -1.874000000     0.739000000     1.240000000
H    -2.666000000     1.479000000     1.158000000
C    -1.509000000     0.170000000     2.436000000
C    -2.407000000     0.379000000     3.558000000
O    -3.342000000     1.166000000     3.453000000
O    -2.347000000    -0.290000000     4.621000000
O    -1.225000000     0.190000000     7.084000000
H    -0.857000000    -0.673000000     7.276000000
H    -1.423000000     0.164000000     6.148000000
O    -3.129000000     2.597000000     5.800000000
H    -2.263000000     2.347000000     6.124000000
H    -3.291000000     2.001000000     5.068000000
O    -6.703000000     3.168000000     5.255000000
H    -6.941000000     2.876000000     4.375000000
H    -5.987000000     3.787000000     5.116000000
O    -4.487000000    -4.423000000     4.688000000
H    -4.860000000    -5.204000000     4.278000000
H    -5.239000000    -3.855000000     4.851000000
O    -6.853000000    -3.786000000     2.179000000
H    -7.522000000    -3.113000000     2.054000000
H    -6.055000000    -3.401000000     1.817000000
O    -5.955000000     0.102000000     3.326000000
H    -6.035000000     0.032000000     4.277000000
H    -5.210000000     0.687000000     3.191000000
O    -4.328000000     4.602000000     7.242000000
H    -4.892000000     4.006000000     7.735000000
H    -3.916000000     4.048000000     6.579000000
O    -1.002000000    -5.563000000     6.107000000
H    -0.278000000    -6.071000000     6.471000000
H    -0.970000000    -4.729000000     6.575000000
O    -2.026000000    -2.789000000     5.378000000
H    -2.040000000    -1.902000000     5.018000000
H    -2.908000000    -3.125000000     5.220000000
O    -8.600000000     2.197000000     3.090000000
H    -8.992000000     2.712000000     2.385000000
H    -8.722000000     1.287000000     2.817000000
O    -4.852000000    -3.252000000     8.953000000
H    -4.083000000    -3.176000000     8.388000000
H    -4.684000000    -4.031000000     9.483000000
O    -4.728000000    -2.402000000     1.451000000
H    -5.179000000    -1.834000000     2.076000000
H    -4.062000000    -1.839000000     1.054000000
O    -0.903000000     1.409000000     9.442000000
H    -1.153000000     1.074000000     8.582000000
H    -1.733000000     1.519000000     9.907000000
O     0.399000000    -1.908000000     8.499000000
H     1.288000000    -2.110000000     8.208000000
H     0.517000000    -1.456000000     9.335000000
O    -1.814000000    -3.450000000     7.987000000
H    -1.063000000    -2.891000000     8.187000000
H    -2.074000000    -3.193000000     7.102000000
O    -4.637000000    -0.457000000     6.060000000
H    -4.686000000     0.313000000     6.626000000
H    -3.796000000    -0.370000000     5.610000000
O    -8.018000000    -0.608000000     1.615000000
H    -7.775000000    -0.135000000     0.820000000
H    -7.440000000    -0.254000000     2.291000000
O    -6.978000000    -3.245000000     5.489000000
H    -6.769000000    -2.312000000     5.522000000
H    -7.325000000    -3.444000000     6.359000000
O    -2.541000000    -6.245000000     3.944000000
H    -2.939000000    -5.379000000     3.852000000
H    -1.845000000    -6.120000000     4.589000000
