215
-1428.26070
C    -4.165000000    -2.687000000    -2.046000000
H    -3.762000000    -3.443000000    -2.715000000
C    -3.795000000    -1.357000000    -2.048000000
C    -4.439000000    -0.470000000    -1.182000000
H    -4.090000000     0.556000000    -1.094000000
C    -2.776000000    -0.821000000    -3.068000000
O    -2.394000000    -1.751000000    -4.043000000
H    -1.848000000    -0.627000000    -2.511000000
O    -3.336000000     0.351000000    -3.707000000
C    -2.471000000     1.415000000    -3.766000000
C    -2.585000000     2.475000000    -2.830000000
H    -3.424000000     2.504000000    -2.138000000
C    -1.602000000     3.516000000    -2.749000000
O    -1.746000000     4.340000000    -1.631000000
C    -0.406000000     3.456000000    -3.477000000
C     0.654000000     4.456000000    -3.397000000
H     1.154000000     4.567000000    -4.361000000
C     1.572000000     4.102000000    -2.300000000
C     2.691000000     3.393000000    -2.628000000
H     2.944000000     3.212000000    -3.670000000
H     0.122000000     5.400000000    -3.263000000
C    -0.353000000     2.344000000    -4.460000000
H     0.558000000     2.286000000    -5.051000000
C    -1.345000000     1.307000000    -4.598000000
C    -0.971000000     0.191000000    -5.548000000
H    -0.207000000     0.576000000    -6.227000000
H    -1.914000000    -0.063000000    -6.038000000
C    -0.271000000    -0.972000000    -4.840000000
C     1.073000000    -1.138000000    -4.788000000
H     1.727000000    -0.368000000    -5.190000000
C    -1.048000000    -1.917000000    -4.141000000
C    -0.530000000    -2.974000000    -3.479000000
H    -1.167000000    -3.650000000    -2.915000000
C     0.851000000    -3.169000000    -3.458000000
O     1.390000000    -4.020000000    -2.541000000
C     1.767000000    -3.509000000    -1.281000000
C     1.271000000    -4.241000000    -0.135000000
C     1.934000000    -4.209000000     1.056000000
H     2.823000000    -3.594000000     1.172000000
C     0.152000000    -5.097000000    -0.252000000
H    -0.335000000    -5.146000000    -1.223000000
O     3.210000000    -3.344000000    -1.164000000
H     1.314000000    -2.516000000    -1.138000000
C     1.601000000    -2.185000000    -4.066000000
C     3.116000000    -2.312000000    -3.919000000
H     3.609000000    -1.807000000    -4.752000000
H     3.368000000    -3.374000000    -3.885000000
C     3.608000000    -1.568000000    -2.698000000
C     3.961000000    -0.202000000    -2.870000000
H     3.909000000     0.188000000    -3.883000000
C     3.734000000    -2.133000000    -1.430000000
C     4.195000000    -1.384000000    -0.408000000
H     4.190000000    -1.773000000     0.607000000
C     4.654000000    -0.077000000    -0.587000000
O     4.931000000     0.704000000     0.500000000
C     3.881000000     1.428000000     1.135000000
C     3.991000000     1.203000000     2.672000000
C     4.582000000     0.101000000     3.289000000
H     4.999000000    -0.654000000     2.627000000
C     3.443000000     2.131000000     3.576000000
H     2.991000000     3.053000000     3.219000000
O     3.933000000     2.840000000     0.760000000
H     2.869000000     1.205000000     0.767000000
C     4.414000000     0.597000000    -1.819000000
C     4.704000000     2.019000000    -1.971000000
H     4.946000000     2.356000000    -2.981000000
H     5.576000000     2.362000000    -1.409000000
C     3.557000000     2.948000000    -1.638000000
C     3.235000000     3.281000000    -0.258000000
C     2.144000000     4.093000000     0.066000000
H     1.836000000     4.326000000     1.082000000
C     1.347000000     4.507000000    -1.002000000
O     0.171000000     5.046000000    -0.506000000
C    -0.982000000     4.148000000    -0.437000000
H    -0.515000000     3.156000000    -0.344000000
C    -1.831000000     4.358000000     0.827000000
C    -3.203000000     4.235000000     0.816000000
H    -3.742000000     4.117000000    -0.120000000
C    -1.231000000     4.535000000     2.070000000
H    -0.157000000     4.465000000     2.221000000
C    -2.003000000     4.683000000     3.273000000
O    -1.437000000     4.831000000     4.505000000
C    -3.348000000     4.718000000     3.172000000
H    -4.009000000     4.846000000     4.025000000
C    -3.975000000     4.412000000     1.957000000
O    -5.334000000     4.354000000     1.806000000
C    -5.886000000     3.427000000     0.910000000
C    -5.633000000     2.096000000     1.135000000
H    -5.051000000     1.823000000     2.011000000
C    -6.844000000     3.853000000    -0.023000000
H    -7.218000000     4.874000000    -0.027000000
C    -7.520000000     2.898000000    -0.760000000
H    -8.245000000     3.262000000    -1.483000000
C    -7.128000000     1.564000000    -0.596000000
H    -7.633000000     0.760000000    -1.126000000
C    -6.256000000     1.135000000     0.373000000
O    -5.996000000    -0.119000000     0.595000000
C    -5.465000000    -0.954000000    -0.351000000
C    -5.876000000    -2.273000000    -0.340000000
H    -6.623000000    -2.739000000     0.297000000
C    -5.104000000    -3.125000000    -1.122000000
O    -5.295000000    -4.542000000    -1.049000000
C    -4.357000000    -5.555000000    -1.075000000
C    -3.338000000    -5.696000000    -0.139000000
H    -3.370000000    -4.904000000     0.604000000
C    -4.743000000    -6.688000000    -1.817000000
H    -5.634000000    -6.750000000    -2.436000000
C    -3.922000000    -7.837000000    -1.728000000
H    -4.152000000    -8.757000000    -2.260000000
C    -2.702000000    -7.765000000    -0.994000000
H    -1.964000000    -8.563000000    -1.012000000
C    -2.395000000    -6.689000000    -0.137000000
O    -1.327000000    -6.843000000     0.760000000
C    -0.233000000    -5.922000000     0.844000000
C     0.338000000    -5.733000000     2.063000000
H     0.008000000    -6.310000000     2.923000000
C     1.464000000    -4.920000000     2.150000000
O     1.959000000    -4.690000000     3.463000000
C     3.193000000    -4.199000000     3.624000000
C     3.464000000    -3.025000000     4.373000000
H     2.627000000    -2.571000000     4.898000000
C     4.269000000    -4.836000000     3.050000000
H     4.057000000    -5.801000000     2.597000000
C     5.579000000    -4.459000000     3.338000000
H     6.462000000    -5.022000000     3.045000000
C     5.852000000    -3.293000000     4.026000000
H     6.906000000    -3.031000000     4.078000000
C     4.810000000    -2.637000000     4.620000000
O     4.903000000    -1.378000000     5.277000000
C     4.530000000    -0.131000000     4.668000000
C     3.847000000     0.801000000     5.477000000
H     3.658000000     0.554000000     6.518000000
C     3.415000000     1.993000000     4.957000000
O     2.712000000     2.866000000     5.809000000
C     2.006000000     3.954000000     5.495000000
C     2.645000000     5.163000000     5.399000000
H     3.698000000     5.186000000     5.669000000
C     1.905000000     6.292000000     4.958000000
H     2.473000000     7.210000000     5.082000000
C     0.565000000     6.209000000     4.774000000
H    -0.074000000     7.055000000     4.539000000
C    -0.051000000     4.981000000     4.725000000
C     0.627000000     3.828000000     5.077000000
H     0.144000000     2.854000000     5.078000000
C     0.187000000    -0.408000000     2.141000000
H     0.501000000    -0.768000000     3.118000000
C     0.883000000    -0.647000000     0.961000000
H     1.824000000    -1.189000000     0.913000000
C     0.361000000    -0.031000000    -0.185000000
H     0.828000000    -0.185000000    -1.130000000
C    -0.804000000     0.700000000    -0.290000000
H    -1.129000000     1.098000000    -1.247000000
C    -1.519000000     0.871000000     0.889000000
H    -2.335000000     1.587000000     0.836000000
C    -0.996000000     0.360000000     2.106000000
C    -1.675000000     0.644000000     3.427000000
O    -2.811000000     0.941000000     3.336000000
O    -1.236000000     0.320000000     4.510000000
O    -1.117000000    -4.382000000     6.478000000
H    -0.890000000    -4.831000000     7.292000000
H    -0.704000000    -4.906000000     5.792000000
O     0.910000000     0.498000000     6.166000000
H     0.264000000     0.521000000     5.459000000
H     1.754000000     0.454000000     5.717000000
O    -0.660000000    -1.506000000     9.435000000
H     0.251000000    -1.343000000     9.192000000
H    -1.160000000    -1.291000000     8.648000000
O    -7.399000000     3.051000000     6.103000000
H    -6.527000000     2.669000000     6.001000000
H    -7.905000000     2.693000000     5.374000000
O    -2.439000000     1.996000000     6.077000000
H    -2.327000000     2.876000000     5.716000000
H    -2.175000000     1.411000000     5.368000000
O    -5.053000000     1.566000000     4.788000000
H    -4.496000000     2.148000000     5.306000000
H    -4.531000000     1.362000000     4.013000000
O    -3.832000000    -1.637000000     3.267000000
H    -4.746000000    -1.355000000     3.219000000
H    -3.371000000    -0.892000000     3.652000000
O    -2.501000000     1.768000000     8.966000000
H    -2.724000000     1.885000000     8.042000000
H    -1.588000000     1.482000000     8.957000000
O    -1.301000000     4.293000000     7.631000000
H    -2.190000000     4.306000000     7.275000000
H    -1.208000000     3.419000000     8.011000000
O    -6.443000000    -0.803000000     3.478000000
H    -6.142000000    -0.124000000     4.082000000
H    -7.040000000    -0.347000000     2.884000000
O    -3.966000000     4.864000000     6.977000000
H    -4.391000000     5.655000000     6.646000000
H    -4.495000000     4.606000000     7.732000000
O    -1.685000000    -2.999000000     2.695000000
H    -1.125000000    -2.367000000     2.243000000
H    -2.518000000    -2.543000000     2.809000000
O    -4.482000000    -0.296000000     8.682000000
H    -3.834000000     0.296000000     9.064000000
H    -5.299000000    -0.078000000     9.131000000
O     0.235000000     1.663000000     8.825000000
H     0.586000000     1.569000000     7.939000000
H     0.859000000     2.236000000     9.270000000
O    -5.324000000    -2.961000000     6.092000000
H    -4.571000000    -3.180000000     5.544000000
H    -4.973000000    -2.932000000     6.982000000
O    -3.171000000    -4.140000000     4.719000000
H    -2.713000000    -3.689000000     4.009000000
H    -2.482000000    -4.362000000     5.345000000
O    -5.844000000    -4.183000000     3.481000000
H    -5.864000000    -3.623000000     4.258000000
H    -5.310000000    -3.699000000     2.852000000
O     0.845000000    -2.189000000     6.695000000
H    -0.031000000    -2.577000000     6.688000000
H     0.700000000    -1.268000000     6.478000000
O    -1.921000000    -0.788000000     6.964000000
H    -1.519000000    -0.398000000     6.188000000
H    -2.800000000    -0.411000000     6.993000000
