215
-1446.78879
C    -3.771000000    -1.673000000    -2.122000000
H    -3.001000000    -2.432000000    -2.233000000
C    -3.708000000    -0.484000000    -2.753000000
C    -4.744000000     0.435000000    -2.575000000
H    -4.871000000     1.351000000    -3.148000000
C    -2.468000000    -0.173000000    -3.566000000
O    -2.020000000    -1.172000000    -4.462000000
H    -1.664000000    -0.035000000    -2.828000000
O    -2.606000000     1.076000000    -4.293000000
C    -1.549000000     1.909000000    -4.127000000
C    -1.742000000     2.820000000    -3.109000000
H    -2.706000000     2.842000000    -2.608000000
C    -0.721000000     3.705000000    -2.823000000
O    -1.012000000     4.450000000    -1.705000000
C     0.540000000     3.499000000    -3.415000000
C     1.788000000     4.343000000    -2.932000000
H     2.545000000     4.167000000    -3.700000000
C     2.436000000     3.747000000    -1.663000000
C     3.509000000     2.809000000    -1.756000000
H     3.906000000     2.559000000    -2.736000000
H     1.526000000     5.403000000    -2.897000000
C     0.720000000     2.541000000    -4.400000000
H     1.712000000     2.350000000    -4.801000000
C    -0.323000000     1.691000000    -4.792000000
C    -0.130000000     0.516000000    -5.724000000
H     0.697000000     0.859000000    -6.349000000
H    -0.995000000     0.277000000    -6.346000000
C     0.333000000    -0.739000000    -5.015000000
C     1.688000000    -1.057000000    -4.775000000
H     2.501000000    -0.450000000    -5.166000000
C    -0.655000000    -1.547000000    -4.457000000
C    -0.321000000    -2.720000000    -3.794000000
H    -1.088000000    -3.392000000    -3.414000000
C     0.986000000    -2.927000000    -3.438000000
O     1.263000000    -3.973000000    -2.619000000
C     1.703000000    -3.815000000    -1.270000000
C     1.044000000    -4.848000000    -0.290000000
C     1.597000000    -5.107000000     0.959000000
H     2.488000000    -4.522000000     1.173000000
C    -0.220000000    -5.365000000    -0.614000000
H    -0.651000000    -5.145000000    -1.587000000
O     3.120000000    -3.898000000    -1.202000000
H     1.477000000    -2.852000000    -0.789000000
C     2.006000000    -2.165000000    -3.941000000
C     3.443000000    -2.510000000    -3.674000000
H     4.078000000    -1.966000000    -4.377000000
H     3.617000000    -3.585000000    -3.747000000
C     3.911000000    -1.952000000    -2.307000000
C     4.394000000    -0.636000000    -2.214000000
H     4.343000000     0.117000000    -2.996000000
C     3.803000000    -2.712000000    -1.136000000
C     4.109000000    -2.138000000     0.149000000
H     3.996000000    -2.706000000     1.069000000
C     4.598000000    -0.822000000     0.233000000
O     4.706000000    -0.322000000     1.521000000
C     3.677000000     0.594000000     2.035000000
C     3.213000000     0.399000000     3.489000000
C     2.916000000    -0.868000000     3.866000000
H     3.377000000    -1.718000000     3.371000000
C     2.791000000     1.493000000     4.259000000
H     3.101000000     2.502000000     4.000000000
O     4.060000000     1.922000000     1.730000000
H     2.757000000     0.412000000     1.461000000
C     4.753000000    -0.151000000    -0.948000000
C     5.184000000     1.219000000    -0.833000000
H     5.730000000     1.430000000    -1.756000000
H     5.854000000     1.166000000     0.027000000
C     4.050000000     2.211000000    -0.630000000
C     3.537000000     2.458000000     0.615000000
C     2.580000000     3.468000000     0.727000000
H     2.148000000     3.669000000     1.704000000
C     2.036000000     4.090000000    -0.385000000
O     0.889000000     4.779000000    -0.295000000
C    -0.368000000     4.072000000    -0.467000000
H    -0.345000000     2.972000000    -0.465000000
C    -1.276000000     4.329000000     0.733000000
C    -2.609000000     3.946000000     0.791000000
H    -2.993000000     3.432000000    -0.087000000
C    -0.760000000     5.032000000     1.833000000
H     0.246000000     5.425000000     1.949000000
C    -1.523000000     5.239000000     2.977000000
O    -0.990000000     5.861000000     4.111000000
C    -2.852000000     4.804000000     3.018000000
H    -3.456000000     5.010000000     3.898000000
C    -3.415000000     4.115000000     1.907000000
O    -4.743000000     3.714000000     1.864000000
C    -5.509000000     3.733000000     0.714000000
C    -5.861000000     2.421000000     0.219000000
H    -5.556000000     1.573000000     0.828000000
C    -5.901000000     4.862000000    -0.016000000
H    -5.801000000     5.887000000     0.331000000
C    -6.538000000     4.711000000    -1.182000000
H    -6.872000000     5.563000000    -1.768000000
C    -6.795000000     3.412000000    -1.709000000
H    -7.348000000     3.259000000    -2.633000000
C    -6.537000000     2.296000000    -0.968000000
O    -6.814000000     1.008000000    -1.485000000
C    -5.792000000     0.139000000    -1.721000000
C    -5.895000000    -1.134000000    -1.168000000
H    -6.807000000    -1.366000000    -0.624000000
C    -4.855000000    -2.022000000    -1.361000000
O    -5.023000000    -3.251000000    -0.846000000
C    -4.518000000    -4.407000000    -1.279000000
C    -3.542000000    -5.040000000    -0.547000000
H    -3.163000000    -4.738000000     0.426000000
C    -4.792000000    -4.865000000    -2.574000000
H    -5.449000000    -4.380000000    -3.291000000
C    -4.324000000    -6.091000000    -2.984000000
H    -4.835000000    -6.501000000    -3.852000000
C    -3.422000000    -6.804000000    -2.144000000
H    -2.950000000    -7.724000000    -2.481000000
C    -2.952000000    -6.236000000    -0.978000000
O    -2.033000000    -6.809000000    -0.182000000
C    -0.835000000    -6.227000000     0.235000000
C    -0.130000000    -6.699000000     1.381000000
H    -0.592000000    -7.386000000     2.085000000
C     0.982000000    -6.015000000     1.780000000
O     1.543000000    -6.414000000     2.979000000
C     2.267000000    -5.486000000     3.681000000
C     1.592000000    -4.364000000     4.188000000
H     0.523000000    -4.223000000     4.049000000
C     3.587000000    -5.761000000     4.021000000
H     4.105000000    -6.570000000     3.513000000
C     4.372000000    -4.892000000     4.816000000
H     5.423000000    -5.076000000     5.019000000
C     3.684000000    -3.740000000     5.296000000
H     4.168000000    -2.920000000     5.821000000
C     2.320000000    -3.495000000     4.994000000
O     1.640000000    -2.325000000     5.305000000
C     2.122000000    -1.077000000     4.995000000
C     1.643000000     0.013000000     5.760000000
H     1.087000000    -0.167000000     6.677000000
C     2.027000000     1.280000000     5.411000000
O     1.521000000     2.374000000     6.156000000
C     1.456000000     3.638000000     5.662000000
C     2.535000000     4.502000000     5.792000000
H     3.431000000     4.201000000     6.330000000
C     2.469000000     5.849000000     5.359000000
H     3.319000000     6.526000000     5.384000000
C     1.343000000     6.239000000     4.605000000
H     1.204000000     7.263000000     4.267000000
C     0.218000000     5.353000000     4.554000000
C     0.240000000     4.060000000     5.082000000
H    -0.581000000     3.350000000     5.142000000
C    -1.247000000    -1.963000000     1.474000000
H    -1.479000000    -2.973000000     1.146000000
C    -0.784000000    -1.056000000     0.541000000
H    -0.517000000    -1.410000000    -0.451000000
C    -0.495000000     0.232000000     0.940000000
H    -0.066000000     0.876000000     0.221000000
C    -0.580000000     0.611000000     2.250000000
H    -0.362000000     1.597000000     2.654000000
C    -1.079000000    -0.316000000     3.227000000
H    -1.119000000    -0.011000000     4.269000000
C    -1.465000000    -1.578000000     2.847000000
C    -2.050000000    -2.629000000     3.742000000
O    -2.149000000    -2.419000000     4.940000000
O    -2.612000000    -3.572000000     3.272000000
O    -6.724000000    -1.325000000     5.146000000
H    -6.854000000    -0.441000000     5.489000000
H    -7.476000000    -1.473000000     4.572000000
O    -0.461000000    -4.205000000     6.547000000
H     0.080000000    -3.977000000     7.303000000
H    -0.860000000    -3.377000000     6.279000000
O    -1.097000000    -1.476000000     7.528000000
H    -1.376000000    -0.582000000     7.726000000
H    -1.223000000    -1.563000000     6.583000000
O    -7.873000000    -4.399000000     2.474000000
H    -6.940000000    -4.287000000     2.656000000
H    -8.258000000    -4.619000000     3.323000000
O    -2.471000000     2.317000000     6.994000000
H    -2.722000000     3.238000000     7.068000000
H    -2.982000000     1.988000000     6.254000000
O     0.818000000    -2.986000000     9.109000000
H     0.174000000    -2.444000000     8.653000000
H     0.711000000    -2.758000000    10.033000000
O    -2.924000000    -8.113000000     2.890000000
H    -3.581000000    -7.655000000     2.365000000
H    -2.604000000    -7.452000000     3.504000000
O    -4.177000000     1.997000000     4.574000000
H    -3.991000000     1.078000000     4.768000000
H    -4.340000000     2.014000000     3.631000000
O    -5.270000000    -0.981000000     2.294000000
H    -5.180000000    -1.459000000     3.119000000
H    -4.402000000    -1.028000000     1.894000000
O    -5.066000000    -4.483000000     3.619000000
H    -4.178000000    -4.314000000     3.306000000
H    -5.114000000    -4.027000000     4.460000000
O    -1.957000000    -6.526000000     7.742000000
H    -2.867000000    -6.251000000     7.625000000
H    -1.441000000    -5.794000000     7.404000000
O    -8.037000000    -0.647000000     1.880000000
H    -7.112000000    -0.890000000     1.891000000
H    -8.077000000     0.168000000     2.379000000
O    -5.276000000    -7.054000000     2.088000000
H    -5.445000000    -7.506000000     2.914000000
H    -5.244000000    -6.127000000     2.324000000
O    -4.202000000    -0.735000000     5.366000000
H    -3.399000000    -1.242000000     5.486000000
H    -4.907000000    -1.352000000     5.564000000
O    -4.454000000    -6.477000000     5.567000000
H    -4.877000000    -5.776000000     5.070000000
H    -3.522000000    -6.376000000     5.375000000
O    -1.895000000    -5.954000000     4.440000000
H    -1.148000000    -5.776000000     5.012000000
H    -2.298000000    -5.097000000     4.300000000
O    -3.852000000    -3.049000000     8.564000000
H    -3.729000000    -2.114000000     8.402000000
H    -4.121000000    -3.100000000     9.481000000
O    -4.776000000    -0.316000000     8.705000000
H    -5.574000000    -0.845000000     8.730000000
H    -5.084000000     0.585000000     8.805000000
O    -4.206000000    -3.734000000     6.174000000
H    -3.955000000    -3.602000000     7.088000000
H    -3.512000000    -3.307000000     5.672000000
