215
-1442.72560
C    -4.618000000    -0.664000000    -2.875000000
H    -4.344000000    -1.710000000    -2.990000000
C    -3.622000000     0.309000000    -3.206000000
C    -3.990000000     1.660000000    -3.234000000
H    -3.221000000     2.395000000    -3.460000000
C    -2.252000000    -0.073000000    -3.697000000
O    -2.373000000    -1.413000000    -4.207000000
H    -1.503000000    -0.076000000    -2.891000000
O    -1.800000000     0.883000000    -4.756000000
C    -0.475000000     1.292000000    -4.649000000
C    -0.237000000     2.513000000    -4.036000000
H    -1.057000000     3.197000000    -3.831000000
C     1.060000000     2.760000000    -3.681000000
O     1.221000000     3.887000000    -2.875000000
C     2.150000000     1.834000000    -3.941000000
C     3.562000000     2.192000000    -3.490000000
H     4.264000000     1.743000000    -4.196000000
C     3.819000000     1.780000000    -2.069000000
C     4.454000000     0.604000000    -1.829000000
H     4.684000000    -0.013000000    -2.694000000
H     3.667000000     3.272000000    -3.618000000
C     1.767000000     0.589000000    -4.492000000
H     2.484000000    -0.228000000    -4.524000000
C     0.518000000     0.400000000    -4.972000000
C     0.237000000    -1.031000000    -5.569000000
H     0.948000000    -1.287000000    -6.358000000
H    -0.573000000    -0.897000000    -6.289000000
C    -0.030000000    -2.008000000    -4.462000000
C     1.117000000    -2.773000000    -4.032000000
H     2.106000000    -2.551000000    -4.427000000
C    -1.292000000    -2.200000000    -3.877000000
C    -1.394000000    -3.181000000    -2.925000000
H    -2.393000000    -3.383000000    -2.549000000
C    -0.331000000    -3.917000000    -2.480000000
O    -0.422000000    -4.725000000    -1.347000000
C    -0.016000000    -4.121000000    -0.170000000
C    -1.064000000    -4.144000000     0.944000000
C    -0.764000000    -4.417000000     2.324000000
H     0.197000000    -4.734000000     2.720000000
C    -2.381000000    -3.717000000     0.711000000
H    -2.619000000    -3.355000000    -0.285000000
O     1.221000000    -4.842000000     0.269000000
H     0.222000000    -3.098000000    -0.497000000
C     0.975000000    -3.667000000    -2.961000000
C     2.151000000    -4.539000000    -2.391000000
H     2.900000000    -4.645000000    -3.179000000
H     1.812000000    -5.551000000    -2.161000000
C     2.858000000    -3.874000000    -1.209000000
C     3.953000000    -3.091000000    -1.306000000
H     4.359000000    -2.926000000    -2.301000000
C     2.371000000    -4.070000000     0.115000000
C     2.959000000    -3.529000000     1.212000000
H     2.537000000    -3.758000000     2.187000000
C     3.931000000    -2.586000000     1.002000000
O     4.368000000    -1.905000000     2.119000000
C     3.745000000    -0.600000000     2.232000000
C     3.201000000    -0.293000000     3.634000000
C     2.844000000    -1.391000000     4.491000000
H     2.763000000    -2.388000000     4.065000000
C     3.091000000     1.025000000     4.121000000
H     3.466000000     1.844000000     3.513000000
O     4.580000000     0.503000000     1.805000000
H     2.826000000    -0.640000000     1.628000000
C     4.495000000    -2.374000000    -0.282000000
C     5.477000000    -1.245000000    -0.446000000
H     5.956000000    -1.356000000    -1.421000000
H     6.201000000    -1.188000000     0.370000000
C     4.746000000     0.097000000    -0.543000000
C     4.476000000     0.959000000     0.554000000
C     3.878000000     2.206000000     0.327000000
H     3.703000000     2.801000000     1.220000000
C     3.602000000     2.664000000    -0.989000000
O     2.819000000     3.761000000    -1.114000000
C     1.374000000     3.639000000    -1.471000000
H     0.934000000     2.649000000    -1.283000000
C     0.563000000     4.475000000    -0.478000000
C    -0.593000000     5.149000000    -0.938000000
H    -0.858000000     5.090000000    -1.990000000
C     0.853000000     4.518000000     0.848000000
H     1.678000000     3.938000000     1.254000000
C     0.162000000     5.343000000     1.745000000
O     0.407000000     5.513000000     3.041000000
C    -0.996000000     5.922000000     1.320000000
H    -1.618000000     6.477000000     2.017000000
C    -1.393000000     5.822000000    -0.041000000
O    -2.676000000     6.237000000    -0.426000000
C    -3.327000000     6.006000000    -1.610000000
C    -4.060000000     4.859000000    -1.769000000
H    -3.975000000     4.123000000    -0.973000000
C    -3.351000000     6.911000000    -2.670000000
H    -2.769000000     7.829000000    -2.648000000
C    -4.035000000     6.711000000    -3.871000000
H    -3.824000000     7.432000000    -4.657000000
C    -4.875000000     5.604000000    -3.911000000
H    -5.306000000     5.394000000    -4.887000000
C    -4.885000000     4.644000000    -2.911000000
O    -5.578000000     3.480000000    -2.976000000
C    -5.195000000     2.095000000    -2.833000000
C    -6.152000000     1.130000000    -2.426000000
H    -7.154000000     1.534000000    -2.303000000
C    -5.871000000    -0.241000000    -2.438000000
O    -6.829000000    -1.214000000    -2.248000000
C    -6.484000000    -2.328000000    -1.483000000
C    -5.838000000    -2.134000000    -0.252000000
H    -5.594000000    -1.106000000     0.001000000
C    -6.874000000    -3.581000000    -1.901000000
H    -7.435000000    -3.711000000    -2.823000000
C    -6.429000000    -4.700000000    -1.190000000
H    -6.643000000    -5.698000000    -1.565000000
C    -5.710000000    -4.488000000    -0.032000000
H    -5.334000000    -5.395000000     0.434000000
C    -5.352000000    -3.234000000     0.478000000
O    -4.545000000    -3.053000000     1.574000000
C    -3.293000000    -3.481000000     1.780000000
C    -2.918000000    -3.809000000     3.104000000
H    -3.483000000    -3.693000000     4.026000000
C    -1.621000000    -4.199000000     3.370000000
O    -1.345000000    -4.689000000     4.647000000
C    -0.152000000    -4.615000000     5.317000000
C     0.422000000    -3.410000000     5.667000000
H     0.044000000    -2.477000000     5.256000000
C     0.311000000    -5.815000000     5.849000000
H    -0.273000000    -6.708000000     5.648000000
C     1.507000000    -5.742000000     6.674000000
H     1.895000000    -6.661000000     7.106000000
C     2.112000000    -4.507000000     6.979000000
H     3.002000000    -4.603000000     7.596000000
C     1.580000000    -3.337000000     6.465000000
O     2.131000000    -2.099000000     6.779000000
C     2.509000000    -1.135000000     5.838000000
C     2.373000000     0.165000000     6.300000000
H     1.964000000     0.326000000     7.294000000
C     2.731000000     1.236000000     5.470000000
O     2.647000000     2.544000000     5.927000000
C     2.695000000     3.654000000     5.114000000
C     3.947000000     4.206000000     4.718000000
H     4.820000000     3.767000000     5.194000000
C     3.976000000     5.202000000     3.704000000
H     4.921000000     5.700000000     3.506000000
C     2.778000000     5.730000000     3.234000000
H     2.838000000     6.608000000     2.598000000
C     1.531000000     5.158000000     3.666000000
C     1.484000000     4.179000000     4.652000000
H     0.539000000     3.820000000     5.052000000
C    -1.777000000     0.852000000    -0.003000000
H    -2.364000000     1.466000000    -0.681000000
C    -0.515000000     0.366000000    -0.305000000
H    -0.081000000     0.532000000    -1.288000000
C     0.191000000    -0.355000000     0.613000000
H     1.143000000    -0.809000000     0.347000000
C    -0.405000000    -0.588000000     1.888000000
H     0.191000000    -1.111000000     2.632000000
C    -1.728000000    -0.206000000     2.125000000
H    -2.132000000    -0.500000000     3.090000000
C    -2.412000000     0.588000000     1.216000000
C    -3.776000000     1.078000000     1.587000000
O    -4.181000000     0.902000000     2.725000000
O    -4.384000000     1.680000000     0.740000000
O    -5.248000000     7.345000000     1.012000000
H    -5.847000000     6.987000000     0.357000000
H    -4.734000000     7.996000000     0.536000000
O    -3.146000000    -1.136000000     6.337000000
H    -3.121000000    -0.290000000     5.889000000
H    -3.764000000    -1.659000000     5.826000000
O    -5.395000000    -1.482000000     4.044000000
H    -4.989000000    -1.952000000     3.316000000
H    -5.279000000    -0.557000000     3.826000000
O    -6.896000000    -4.770000000     4.142000000
H    -7.107000000    -4.333000000     3.317000000
H    -7.232000000    -4.181000000     4.818000000
O    -8.525000000     4.190000000     4.427000000
H    -9.290000000     4.568000000     3.994000000
H    -8.701000000     3.249000000     4.448000000
O    -2.909000000     5.755000000     6.021000000
H    -3.750000000     6.057000000     6.366000000
H    -3.110000000     5.447000000     5.137000000
O    -5.686000000    -1.142000000     7.862000000
H    -4.766000000    -1.071000000     7.608000000
H    -5.793000000    -0.496000000     8.561000000
O    -5.848000000     3.937000000     1.047000000
H    -5.787000000     4.651000000     0.412000000
H    -5.205000000     3.294000000     0.746000000
O    -6.735000000     6.001000000    -0.915000000
H    -6.781000000     5.417000000    -1.672000000
H    -7.524000000     5.802000000    -0.411000000
O    -6.052000000     2.900000000     5.014000000
H    -6.595000000     2.115000000     4.934000000
H    -6.571000000     3.592000000     4.603000000
O    -3.654000000     1.950000000     4.993000000
H    -4.518000000     2.340000000     5.122000000
H    -3.683000000     1.592000000     4.105000000
O    -5.294000000     6.795000000     3.717000000
H    -5.607000000     6.850000000     2.814000000
H    -5.045000000     5.878000000     3.829000000
O    -2.688000000     2.646000000     7.506000000
H    -2.967000000     2.375000000     6.631000000
H    -2.012000000     3.305000000     7.348000000
O    -8.220000000    -2.185000000     4.023000000
H    -7.334000000    -1.853000000     4.164000000
H    -8.676000000    -2.007000000     4.846000000
O    -8.953000000     1.505000000     3.885000000
H    -8.285000000     1.198000000     3.271000000
H    -9.407000000     0.709000000     4.161000000
O    -7.018000000     1.509000000     1.916000000
H    -6.939000000     2.268000000     1.338000000
H    -6.114000000     1.260000000     2.109000000
O    -4.200000000     4.370000000     3.410000000
H    -4.684000000     4.089000000     2.633000000
H    -4.023000000     3.561000000     3.888000000
O    -9.267000000    -0.088000000     1.046000000
H    -9.303000000    -0.955000000     0.643000000
H    -8.507000000    -0.125000000     1.626000000
O    -9.392000000     2.747000000    -0.333000000
H    -9.228000000     3.440000000     0.305000000
H    -9.408000000     1.942000000     0.185000000
