215
-1443.28670
C    -4.521000000     0.700000000    -2.747000000
H    -4.671000000    -0.288000000    -3.175000000
C    -3.354000000     1.376000000    -2.888000000
C    -3.109000000     2.635000000    -2.277000000
H    -2.174000000     3.180000000    -2.377000000
C    -2.173000000     0.724000000    -3.604000000
O    -2.475000000    -0.395000000    -4.388000000
H    -1.551000000     0.383000000    -2.764000000
O    -1.384000000     1.676000000    -4.331000000
C    -0.044000000     1.638000000    -4.222000000
C     0.535000000     2.720000000    -3.496000000
H    -0.054000000     3.537000000    -3.087000000
C     1.929000000     2.696000000    -3.176000000
O     2.450000000     3.691000000    -2.368000000
C     2.691000000     1.608000000    -3.541000000
C     4.179000000     1.564000000    -3.308000000
H     4.687000000     1.100000000    -4.155000000
C     4.479000000     0.896000000    -2.055000000
C     4.514000000    -0.480000000    -1.936000000
H     4.348000000    -1.152000000    -2.774000000
H     4.626000000     2.560000000    -3.263000000
C     2.099000000     0.571000000    -4.314000000
H     2.709000000    -0.277000000    -4.614000000
C     0.755000000     0.618000000    -4.742000000
C     0.162000000    -0.476000000    -5.540000000
H     0.892000000    -0.865000000    -6.254000000
H    -0.635000000    -0.081000000    -6.173000000
C    -0.426000000    -1.547000000    -4.592000000
C     0.354000000    -2.655000000    -4.272000000
H     1.389000000    -2.664000000    -4.604000000
C    -1.724000000    -1.489000000    -4.059000000
C    -2.212000000    -2.467000000    -3.264000000
H    -3.239000000    -2.442000000    -2.908000000
C    -1.357000000    -3.450000000    -2.753000000
O    -1.887000000    -4.304000000    -1.919000000
C    -1.497000000    -4.042000000    -0.503000000
C    -2.671000000    -4.100000000     0.483000000
C    -2.362000000    -4.499000000     1.795000000
H    -1.367000000    -4.671000000     2.197000000
C    -3.928000000    -3.642000000     0.109000000
H    -4.125000000    -3.321000000    -0.911000000
O    -0.377000000    -4.856000000    -0.099000000
H    -1.179000000    -2.990000000    -0.450000000
C    -0.124000000    -3.590000000    -3.380000000
C     0.784000000    -4.639000000    -2.841000000
H     1.490000000    -4.937000000    -3.619000000
H     0.238000000    -5.559000000    -2.625000000
C     1.523000000    -4.201000000    -1.546000000
C     2.776000000    -3.585000000    -1.723000000
H     3.125000000    -3.475000000    -2.747000000
C     0.932000000    -4.323000000    -0.294000000
C     1.622000000    -3.929000000     0.785000000
H     1.196000000    -4.111000000     1.768000000
C     2.914000000    -3.436000000     0.707000000
O     3.488000000    -2.945000000     1.870000000
C     3.504000000    -1.583000000     2.018000000
C     2.954000000    -1.196000000     3.416000000
C     2.198000000    -2.107000000     4.145000000
H     2.082000000    -3.132000000     3.802000000
C     2.986000000     0.171000000     3.800000000
H     3.457000000     0.906000000     3.152000000
O     4.733000000    -0.853000000     1.746000000
H     2.715000000    -1.127000000     1.401000000
C     3.484000000    -3.256000000    -0.582000000
C     4.852000000    -2.604000000    -0.673000000
H     5.315000000    -3.001000000    -1.578000000
H     5.522000000    -2.772000000     0.173000000
C     4.746000000    -1.120000000    -0.723000000
C     4.777000000    -0.300000000     0.452000000
C     4.768000000     1.086000000     0.343000000
H     4.796000000     1.767000000     1.191000000
C     4.499000000     1.680000000    -0.912000000
O     4.160000000     2.962000000    -0.783000000
C     2.727000000     3.332000000    -0.972000000
H     2.106000000     2.458000000    -0.725000000
C     2.360000000     4.469000000    -0.091000000
C     1.302000000     5.312000000    -0.400000000
H     0.793000000     5.259000000    -1.358000000
C     3.059000000     4.715000000     1.130000000
H     3.852000000     4.039000000     1.439000000
C     2.731000000     5.785000000     1.954000000
O     3.325000000     5.889000000     3.193000000
C     1.753000000     6.642000000     1.595000000
H     1.449000000     7.436000000     2.273000000
C     1.085000000     6.396000000     0.396000000
O    -0.004000000     7.202000000     0.113000000
C    -1.098000000     6.735000000    -0.630000000
C    -1.980000000     5.704000000    -0.175000000
H    -1.816000000     5.186000000     0.767000000
C    -1.363000000     7.297000000    -1.849000000
H    -0.777000000     8.107000000    -2.276000000
C    -2.354000000     6.827000000    -2.684000000
H    -2.501000000     7.175000000    -3.703000000
C    -3.278000000     5.892000000    -2.204000000
H    -4.191000000     5.685000000    -2.757000000
C    -3.005000000     5.216000000    -0.999000000
O    -3.834000000     4.226000000    -0.626000000
C    -4.118000000     3.144000000    -1.425000000
C    -5.309000000     2.502000000    -1.237000000
H    -6.078000000     3.115000000    -0.775000000
C    -5.527000000     1.312000000    -1.981000000
O    -6.729000000     0.654000000    -1.893000000
C    -7.031000000    -0.673000000    -1.659000000
C    -6.555000000    -1.295000000    -0.504000000
H    -5.965000000    -0.641000000     0.133000000
C    -7.848000000    -1.390000000    -2.549000000
H    -8.244000000    -0.945000000    -3.459000000
C    -8.186000000    -2.700000000    -2.147000000
H    -8.833000000    -3.274000000    -2.806000000
C    -7.581000000    -3.341000000    -1.052000000
H    -7.844000000    -4.387000000    -0.912000000
C    -6.670000000    -2.648000000    -0.311000000
O    -6.264000000    -3.365000000     0.805000000
C    -4.971000000    -3.673000000     1.059000000
C    -4.588000000    -3.932000000     2.420000000
H    -5.371000000    -3.955000000     3.174000000
C    -3.320000000    -4.346000000     2.746000000
O    -3.072000000    -4.750000000     4.121000000
C    -1.791000000    -4.853000000     4.599000000
C    -1.172000000    -3.749000000     5.100000000
H    -1.737000000    -2.821000000     5.062000000
C    -1.069000000    -6.042000000     4.503000000
H    -1.582000000    -6.939000000     4.169000000
C     0.282000000    -6.028000000     4.897000000
H     0.700000000    -7.031000000     4.885000000
C     0.898000000    -4.902000000     5.419000000
H     1.874000000    -4.949000000     5.896000000
C     0.148000000    -3.775000000     5.557000000
O     0.786000000    -2.639000000     6.075000000
C     1.509000000    -1.738000000     5.316000000
C     1.748000000    -0.447000000     5.774000000
H     1.182000000    -0.045000000     6.610000000
C     2.421000000     0.483000000     5.020000000
O     2.475000000     1.730000000     5.596000000
C     3.253000000     2.785000000     5.211000000
C     4.526000000     2.818000000     5.650000000
H     4.773000000     2.008000000     6.332000000
C     5.465000000     3.736000000     5.226000000
H     6.481000000     3.805000000     5.606000000
C     5.003000000     4.748000000     4.456000000
H     5.665000000     5.532000000     4.099000000
C     3.699000000     4.749000000     3.928000000
C     2.762000000     3.783000000     4.346000000
H     1.721000000     3.872000000     4.045000000
C    -0.708000000     2.005000000     1.301000000
H    -1.127000000     2.996000000     1.453000000
C    -0.220000000     1.537000000     0.074000000
H    -0.254000000     2.236000000    -0.758000000
C     0.082000000     0.165000000    -0.110000000
H     0.330000000    -0.214000000    -1.130000000
C    -0.079000000    -0.708000000     0.927000000
H     0.107000000    -1.758000000     0.717000000
C    -0.547000000    -0.217000000     2.145000000
H    -0.599000000    -0.968000000     2.929000000
C    -0.802000000     1.146000000     2.403000000
C    -1.192000000     1.676000000     3.766000000
O    -1.852000000     1.064000000     4.538000000
O    -0.941000000     2.853000000     4.079000000
O    -2.530000000     4.639000000     7.524000000
H    -2.189000000     4.198000000     8.303000000
H    -3.404000000     4.935000000     7.780000000
O     0.952000000     1.701000000     8.371000000
H     0.181000000     1.224000000     8.678000000
H     0.619000000     2.277000000     7.683000000
O    -3.668000000     7.302000000     1.700000000
H    -4.307000000     7.279000000     0.988000000
H    -3.837000000     6.503000000     2.200000000
O    -6.336000000     1.925000000     1.826000000
H    -6.303000000     2.153000000     2.755000000
H    -5.504000000     1.482000000     1.658000000
O    -4.002000000    -0.315000000     3.907000000
H    -3.349000000     0.265000000     4.297000000
H    -4.523000000    -0.622000000     4.649000000
O    -0.452000000     3.207000000     6.536000000
H    -1.151000000     3.859000000     6.575000000
H    -0.494000000     2.864000000     5.643000000
O    -0.011000000     6.906000000     7.260000000
H    -0.726000000     7.169000000     7.840000000
H    -0.303000000     6.076000000     6.883000000
O    -1.982000000    -0.495000000     6.643000000
H    -1.620000000    -0.021000000     5.895000000
H    -2.287000000     0.191000000     7.237000000
O     2.627000000     4.300000000     8.222000000
H     1.895000000     3.723000000     8.440000000
H     3.174000000     3.780000000     7.633000000
O    -1.889000000     5.267000000     4.553000000
H    -2.378000000     5.187000000     5.372000000
H    -1.509000000     4.400000000     4.414000000
O    -4.299000000     4.796000000     3.246000000
H    -4.364000000     4.090000000     2.603000000
H    -3.411000000     4.721000000     3.595000000
O    -5.067000000     6.077000000     5.389000000
H    -4.516000000     6.844000000     5.232000000
H    -4.889000000     5.499000000     4.647000000
O    -2.951000000    -2.846000000     7.750000000
H    -3.685000000    -3.082000000     7.184000000
H    -2.573000000    -2.068000000     7.340000000
O    -4.691000000    -2.765000000     5.531000000
H    -5.603000000    -2.476000000     5.484000000
H    -4.502000000    -3.103000000     4.656000000
O    -3.741000000     2.645000000     5.455000000
H    -2.961000000     2.161000000     5.182000000
H    -3.452000000     3.157000000     6.210000000
O    -3.760000000     1.713000000     8.768000000
H    -4.588000000     2.168000000     8.614000000
H    -3.500000000     1.982000000     9.649000000
O    -6.287000000     2.400000000     4.525000000
H    -5.417000000     2.401000000     4.923000000
H    -6.538000000     3.323000000     4.495000000
O    -3.713000000     0.300000000     1.265000000
H    -2.846000000     0.181000000     0.877000000
H    -3.595000000     0.077000000     2.188000000
O    -0.212000000     7.643000000     4.350000000
H    -0.957000000     8.219000000     4.176000000
H    -0.603000000     6.783000000     4.500000000
