215
-1454.87251
C    -4.603000000     0.863000000    -3.233000000
H    -4.781000000    -0.038000000    -3.814000000
C    -3.329000000     1.394000000    -3.055000000
C    -3.160000000     2.563000000    -2.331000000
H    -2.155000000     2.907000000    -2.098000000
C    -2.143000000     0.758000000    -3.657000000
O    -2.501000000    -0.328000000    -4.529000000
H    -1.511000000     0.387000000    -2.836000000
O    -1.241000000     1.767000000    -4.375000000
C     0.118000000     1.564000000    -4.131000000
C     0.683000000     2.524000000    -3.282000000
H     0.170000000     3.377000000    -2.845000000
C     2.028000000     2.399000000    -2.961000000
O     2.620000000     3.279000000    -2.113000000
C     2.741000000     1.284000000    -3.371000000
C     4.223000000     1.175000000    -3.056000000
H     4.660000000     0.621000000    -3.890000000
C     4.433000000     0.463000000    -1.741000000
C     4.501000000    -0.957000000    -1.709000000
H     4.246000000    -1.556000000    -2.579000000
H     4.674000000     2.170000000    -3.055000000
C     2.176000000     0.390000000    -4.300000000
H     2.838000000    -0.323000000    -4.785000000
C     0.838000000     0.526000000    -4.722000000
C     0.189000000    -0.454000000    -5.561000000
H     0.946000000    -0.856000000    -6.239000000
H    -0.506000000    -0.033000000    -6.290000000
C    -0.476000000    -1.513000000    -4.671000000
C     0.303000000    -2.631000000    -4.274000000
H     1.337000000    -2.705000000    -4.602000000
C    -1.777000000    -1.452000000    -4.312000000
C    -2.328000000    -2.400000000    -3.467000000
H    -3.345000000    -2.188000000    -3.148000000
C    -1.558000000    -3.418000000    -2.888000000
O    -2.075000000    -4.089000000    -1.829000000
C    -1.656000000    -3.711000000    -0.553000000
C    -2.815000000    -3.651000000     0.419000000
C    -2.740000000    -4.070000000     1.723000000
H    -1.804000000    -4.424000000     2.147000000
C    -3.988000000    -3.182000000    -0.094000000
H    -4.019000000    -2.835000000    -1.124000000
O    -0.577000000    -4.579000000    -0.148000000
H    -1.296000000    -2.672000000    -0.528000000
C    -0.238000000    -3.596000000    -3.345000000
C     0.773000000    -4.614000000    -2.803000000
H     1.606000000    -4.667000000    -3.507000000
H     0.352000000    -5.618000000    -2.890000000
C     1.404000000    -4.327000000    -1.541000000
C     2.739000000    -3.937000000    -1.508000000
H     3.321000000    -3.827000000    -2.419000000
C     0.737000000    -4.308000000    -0.297000000
C     1.394000000    -4.096000000     0.941000000
H     0.741000000    -4.107000000     1.810000000
C     2.690000000    -3.655000000     0.966000000
O     3.363000000    -3.214000000     2.118000000
C     3.352000000    -1.748000000     2.313000000
C     2.960000000    -1.304000000     3.690000000
C     1.727000000    -1.730000000     4.138000000
H     1.273000000    -2.630000000     3.732000000
C     3.659000000    -0.283000000     4.353000000
H     4.591000000     0.131000000     3.979000000
O     4.686000000    -1.318000000     1.923000000
H     2.601000000    -1.343000000     1.619000000
C     3.376000000    -3.655000000    -0.302000000
C     4.741000000    -3.071000000    -0.431000000
H     5.155000000    -3.461000000    -1.363000000
H     5.360000000    -3.531000000     0.343000000
C     4.735000000    -1.562000000    -0.470000000
C     4.801000000    -0.788000000     0.695000000
C     4.763000000     0.585000000     0.598000000
H     4.820000000     1.116000000     1.545000000
C     4.448000000     1.222000000    -0.572000000
O     4.160000000     2.605000000    -0.490000000
C     2.732000000     2.996000000    -0.673000000
H     2.127000000     2.108000000    -0.438000000
C     2.390000000     4.196000000     0.184000000
C     1.337000000     5.001000000    -0.114000000
H     0.924000000     4.922000000    -1.116000000
C     3.095000000     4.318000000     1.388000000
H     4.008000000     3.803000000     1.675000000
C     2.713000000     5.288000000     2.299000000
O     3.477000000     5.464000000     3.398000000
C     1.554000000     6.080000000     2.070000000
H     1.199000000     6.755000000     2.845000000
C     0.901000000     5.913000000     0.877000000
O    -0.267000000     6.721000000     0.695000000
C    -1.138000000     6.478000000    -0.314000000
C    -2.195000000     5.631000000     0.011000000
H    -2.377000000     5.313000000     1.034000000
C    -0.906000000     7.042000000    -1.522000000
H    -0.169000000     7.832000000    -1.640000000
C    -1.791000000     6.703000000    -2.584000000
H    -1.727000000     7.119000000    -3.586000000
C    -2.785000000     5.777000000    -2.323000000
H    -3.460000000     5.530000000    -3.138000000
C    -3.070000000     5.291000000    -1.041000000
O    -3.984000000     4.250000000    -0.792000000
C    -4.220000000     3.210000000    -1.743000000
C    -5.554000000     2.660000000    -1.829000000
H    -6.361000000     3.126000000    -1.269000000
C    -5.730000000     1.481000000    -2.630000000
O    -6.957000000     0.942000000    -2.684000000
C    -7.205000000    -0.335000000    -2.465000000
C    -6.600000000    -0.812000000    -1.281000000
H    -6.337000000    -0.188000000    -0.431000000
C    -7.706000000    -1.178000000    -3.508000000
H    -8.049000000    -0.789000000    -4.463000000
C    -7.763000000    -2.548000000    -3.176000000
H    -8.096000000    -3.266000000    -3.921000000
C    -7.300000000    -3.040000000    -1.931000000
H    -7.267000000    -4.104000000    -1.707000000
C    -6.712000000    -2.179000000    -1.004000000
O    -6.404000000    -2.649000000     0.255000000
C    -5.156000000    -3.161000000     0.780000000
C    -5.025000000    -3.456000000     2.089000000
H    -5.874000000    -3.344000000     2.758000000
C    -3.828000000    -3.936000000     2.569000000
O    -3.636000000    -4.258000000     3.956000000
C    -2.415000000    -4.068000000     4.543000000
C    -1.834000000    -2.833000000     4.862000000
H    -2.387000000    -1.950000000     4.552000000
C    -1.833000000    -5.233000000     4.919000000
H    -2.279000000    -6.153000000     4.551000000
C    -0.578000000    -5.251000000     5.544000000
H    -0.138000000    -6.175000000     5.911000000
C     0.067000000    -4.018000000     5.845000000
H     0.945000000    -4.016000000     6.486000000
C    -0.616000000    -2.858000000     5.530000000
O     0.064000000    -1.702000000     5.881000000
C     1.226000000    -1.208000000     5.396000000
C     1.843000000    -0.106000000     5.942000000
H     1.414000000     0.438000000     6.781000000
C     3.020000000     0.326000000     5.419000000
O     3.637000000     1.433000000     5.975000000
C     4.260000000     2.374000000     5.225000000
C     5.660000000     2.502000000     5.297000000
H     6.173000000     1.745000000     5.884000000
C     6.336000000     3.601000000     4.788000000
H     7.409000000     3.614000000     4.957000000
C     5.564000000     4.574000000     4.225000000
H     6.100000000     5.461000000     3.896000000
C     4.192000000     4.523000000     4.070000000
C     3.539000000     3.379000000     4.584000000
H     2.464000000     3.270000000     4.469000000
C    -0.591000000     1.860000000     0.666000000
H    -0.680000000     2.874000000     0.284000000
C    -0.355000000     0.872000000    -0.275000000
H    -0.337000000     1.207000000    -1.309000000
C    -0.254000000    -0.427000000     0.129000000
H    -0.006000000    -1.173000000    -0.646000000
C    -0.329000000    -0.750000000     1.452000000
H    -0.245000000    -1.815000000     1.649000000
C    -0.503000000     0.270000000     2.407000000
H    -0.481000000    -0.008000000     3.458000000
C    -0.611000000     1.589000000     2.022000000
C    -0.953000000     2.615000000     3.011000000
O    -0.645000000     2.382000000     4.184000000
O    -1.485000000     3.637000000     2.666000000
O    -3.157000000     3.704000000     6.785000000
H    -2.624000000     4.036000000     7.507000000
H    -4.060000000     3.829000000     7.077000000
O     1.729000000     2.018000000     8.708000000
H     0.995000000     1.575000000     9.134000000
H     1.367000000     2.344000000     7.884000000
O    -6.411000000     2.299000000     1.549000000
H    -6.163000000     2.351000000     2.472000000
H    -5.664000000     1.878000000     1.123000000
O    -4.046000000    -0.331000000     3.605000000
H    -3.991000000    -0.048000000     2.692000000
H    -3.621000000     0.369000000     4.099000000
O     0.333000000     9.288000000     2.365000000
H    -0.253000000     8.568000000     2.130000000
H     0.786000000     9.504000000     1.550000000
O     0.657000000     3.029000000     6.385000000
H     0.257000000     2.763000000     5.557000000
H    -0.037000000     3.502000000     6.845000000
O     0.192000000     7.547000000     6.042000000
H    -0.427000000     8.085000000     5.548000000
H    -0.147000000     6.655000000     5.959000000
O    -2.646000000     1.292000000     5.336000000
H    -1.797000000     1.402000000     4.907000000
H    -2.716000000     2.044000000     5.924000000
O     3.201000000     4.428000000     7.755000000
H     2.912000000     3.524000000     7.627000000
H     4.011000000     4.494000000     7.249000000
O    -3.531000000     7.026000000     6.322000000
H    -3.443000000     6.077000000     6.236000000
H    -2.906000000     7.264000000     7.007000000
O    -0.999000000     5.332000000     4.958000000
H    -0.593000000     4.517000000     5.253000000
H    -1.419000000     5.104000000     4.129000000
O    -5.103000000     7.127000000     3.804000000
H    -4.658000000     6.283000000     3.741000000
H    -4.556000000     7.643000000     4.396000000
O    -2.641000000    -0.615000000     7.770000000
H    -2.106000000    -0.319000000     7.034000000
H    -3.543000000    -0.516000000     7.465000000
O    -5.188000000    -1.070000000     5.974000000
H    -5.887000000    -1.551000000     5.531000000
H    -4.622000000    -0.764000000     5.265000000
O    -5.005000000     1.145000000     7.512000000
H    -5.233000000     1.961000000     7.067000000
H    -5.139000000     0.466000000     6.851000000
O    -3.716000000     4.338000000     4.172000000
H    -3.057000000     3.990000000     3.572000000
H    -3.309000000     4.278000000     5.036000000
O    -1.345000000     4.483000000     8.817000000
H    -1.169000000     3.715000000     9.362000000
H    -1.272000000     5.224000000     9.418000000
O    -5.635000000     2.408000000     4.100000000
H    -5.036000000     3.105000000     4.365000000
H    -6.489000000     2.686000000     4.431000000
O    -3.683000000     1.047000000     1.091000000
H    -3.467000000     1.972000000     0.975000000
H    -2.858000000     0.587000000     0.932000000
