215
-1482.69443
C    -4.556000000     1.885000000    -1.292000000
H    -5.042000000     0.913000000    -1.334000000
C    -3.356000000     2.015000000    -2.028000000
C    -2.655000000     3.237000000    -1.984000000
H    -1.669000000     3.272000000    -2.440000000
C    -2.838000000     0.951000000    -2.912000000
O    -3.816000000    -0.041000000    -3.280000000
H    -2.037000000     0.392000000    -2.407000000
O    -2.269000000     1.450000000    -4.115000000
C    -0.994000000     0.901000000    -4.441000000
C     0.056000000     1.687000000    -4.047000000
H    -0.142000000     2.717000000    -3.762000000
C     1.388000000     1.251000000    -4.167000000
O     2.348000000     2.124000000    -3.665000000
C     1.627000000    -0.060000000    -4.619000000
C     3.025000000    -0.640000000    -4.685000000
H     3.028000000    -1.457000000    -5.409000000
C     3.508000000    -1.112000000    -3.329000000
C     3.326000000    -2.434000000    -2.927000000
H     2.737000000    -3.094000000    -3.560000000
H     3.718000000     0.140000000    -5.006000000
C     0.547000000    -0.849000000    -4.995000000
H     0.808000000    -1.862000000    -5.291000000
C    -0.777000000    -0.397000000    -4.896000000
C    -1.981000000    -1.310000000    -5.100000000
H    -1.721000000    -2.154000000    -5.742000000
H    -2.772000000    -0.790000000    -5.645000000
C    -2.516000000    -1.941000000    -3.779000000
C    -1.922000000    -3.170000000    -3.354000000
H    -1.143000000    -3.651000000    -3.940000000
C    -3.521000000    -1.332000000    -2.943000000
C    -4.002000000    -1.855000000    -1.779000000
H    -4.607000000    -1.263000000    -1.098000000
C    -3.393000000    -3.071000000    -1.365000000
O    -3.610000000    -3.508000000    -0.150000000
C    -2.633000000    -3.165000000     0.836000000
C    -3.372000000    -2.495000000     1.999000000
C    -2.744000000    -2.478000000     3.200000000
H    -1.724000000    -2.828000000     3.336000000
C    -4.632000000    -1.808000000     1.865000000
H    -5.152000000    -1.700000000     0.917000000
O    -1.810000000    -4.279000000     1.238000000
H    -2.042000000    -2.361000000     0.373000000
C    -2.419000000    -3.750000000    -2.146000000
C    -1.695000000    -4.924000000    -1.601000000
H    -1.314000000    -5.528000000    -2.427000000
H    -2.490000000    -5.544000000    -1.182000000
C    -0.523000000    -4.577000000    -0.751000000
C     0.713000000    -4.609000000    -1.368000000
H     0.851000000    -4.864000000    -2.416000000
C    -0.619000000    -4.399000000     0.639000000
C     0.525000000    -4.175000000     1.408000000
H     0.431000000    -3.918000000     2.460000000
C     1.766000000    -4.117000000     0.774000000
O     2.837000000    -3.624000000     1.499000000
C     3.122000000    -2.251000000     1.319000000
C     3.358000000    -1.592000000     2.707000000
C     2.616000000    -1.913000000     3.790000000
H     1.978000000    -2.792000000     3.826000000
C     4.194000000    -0.485000000     2.810000000
H     4.787000000    -0.167000000     1.956000000
O     4.343000000    -2.216000000     0.577000000
H     2.338000000    -1.702000000     0.777000000
C     1.879000000    -4.341000000    -0.593000000
C     3.318000000    -4.327000000    -1.221000000
H     3.363000000    -5.075000000    -2.015000000
H     4.116000000    -4.471000000    -0.490000000
C     3.670000000    -2.901000000    -1.633000000
C     4.202000000    -1.944000000    -0.759000000
C     4.375000000    -0.595000000    -1.135000000
H     4.746000000     0.075000000    -0.363000000
C     3.970000000    -0.199000000    -2.399000000
O     4.174000000     1.106000000    -2.671000000
C     2.983000000     1.817000000    -2.388000000
H     2.310000000     1.257000000    -1.723000000
C     3.303000000     3.101000000    -1.651000000
C     2.502000000     4.185000000    -1.677000000
H     1.614000000     4.197000000    -2.304000000
C     4.409000000     3.134000000    -0.808000000
H     4.987000000     2.222000000    -0.680000000
C     4.825000000     4.265000000    -0.141000000
O     5.979000000     4.303000000     0.606000000
C     3.986000000     5.387000000    -0.124000000
H     4.181000000     6.149000000     0.627000000
C     2.813000000     5.283000000    -0.858000000
O     1.955000000     6.409000000    -0.831000000
C     0.806000000     6.457000000    -1.514000000
C    -0.368000000     6.014000000    -0.993000000
H    -0.402000000     5.674000000     0.039000000
C     0.822000000     6.873000000    -2.844000000
H     1.751000000     7.241000000    -3.273000000
C    -0.274000000     6.689000000    -3.667000000
H    -0.281000000     7.024000000    -4.701000000
C    -1.446000000     6.160000000    -3.152000000
H    -2.292000000     6.130000000    -3.834000000
C    -1.492000000     5.844000000    -1.763000000
O    -2.669000000     5.458000000    -1.172000000
C    -3.269000000     4.311000000    -1.305000000
C    -4.426000000     4.125000000    -0.465000000
H    -4.764000000     4.908000000     0.209000000
C    -5.065000000     2.879000000    -0.497000000
O    -6.231000000     2.821000000     0.144000000
C    -6.864000000     1.677000000     0.512000000
C    -6.349000000     0.836000000     1.439000000
H    -5.339000000     0.991000000     1.808000000
C    -8.203000000     1.633000000     0.135000000
H    -8.657000000     2.431000000    -0.447000000
C    -9.056000000     0.616000000     0.751000000
H   -10.133000000     0.603000000     0.600000000
C    -8.468000000    -0.347000000     1.581000000
H    -9.069000000    -1.175000000     1.949000000
C    -7.082000000    -0.260000000     1.883000000
O    -6.635000000    -1.089000000     2.900000000
C    -5.336000000    -1.524000000     3.025000000
C    -4.708000000    -1.536000000     4.276000000
H    -5.192000000    -1.237000000     5.203000000
C    -3.397000000    -1.939000000     4.317000000
O    -2.730000000    -1.919000000     5.445000000
C    -1.594000000    -2.619000000     5.787000000
C    -0.396000000    -1.869000000     5.736000000
H    -0.427000000    -0.826000000     5.430000000
C    -1.577000000    -3.912000000     6.332000000
H    -2.493000000    -4.475000000     6.491000000
C    -0.374000000    -4.491000000     6.648000000
H    -0.337000000    -5.483000000     7.092000000
C     0.822000000    -3.785000000     6.445000000
H     1.768000000    -4.196000000     6.787000000
C     0.811000000    -2.476000000     6.036000000
O     1.980000000    -1.711000000     6.027000000
C     2.765000000    -1.279000000     5.007000000
C     3.509000000    -0.131000000     5.112000000
H     3.393000000     0.461000000     6.016000000
C     4.248000000     0.262000000     3.997000000
O     5.145000000     1.321000000     4.157000000
C     6.019000000     1.764000000     3.131000000
C     7.183000000     1.104000000     2.828000000
H     7.571000000     0.262000000     3.396000000
C     8.023000000     1.592000000     1.822000000
H     8.956000000     1.073000000     1.615000000
C     7.633000000     2.650000000     1.068000000
H     8.207000000     3.030000000     0.227000000
C     6.411000000     3.274000000     1.374000000
C     5.667000000     2.924000000     2.452000000
H     4.803000000     3.516000000     2.744000000
C     0.287000000     2.719000000     0.556000000
H     0.471000000     3.719000000     0.170000000
C     0.176000000     1.730000000    -0.428000000
H     0.271000000     1.947000000    -1.489000000
C    -0.028000000     0.423000000    -0.059000000
H    -0.244000000    -0.319000000    -0.847000000
C    -0.132000000     0.090000000     1.276000000
H    -0.291000000    -0.961000000     1.504000000
C    -0.002000000     1.039000000     2.270000000
H    -0.204000000     0.680000000     3.276000000
C     0.210000000     2.361000000     1.928000000
C     0.320000000     3.392000000     3.019000000
O     0.306000000     3.129000000     4.264000000
O     0.597000000     4.568000000     2.782000000
O    -1.287000000     8.122000000     5.283000000
H    -0.709000000     8.877000000     5.176000000
H    -1.061000000     7.543000000     4.556000000
O     0.272000000     5.351000000     5.647000000
H    -0.612000000     5.325000000     6.015000000
H     0.255000000     4.707000000     4.939000000
O     1.380000000     0.436000000     8.214000000
H     1.540000000     1.282000000     8.631000000
H     0.949000000     0.653000000     7.388000000
O     3.544000000     8.564000000     5.034000000
H     3.690000000     7.908000000     4.353000000
H     3.146000000     8.076000000     5.755000000
O    -3.098000000     2.275000000     4.473000000
H    -3.009000000     1.497000000     5.025000000
H    -2.355000000     2.827000000     4.717000000
O    -0.353000000     1.522000000     6.327000000
H    -0.784000000     2.027000000     7.016000000
H    -0.112000000     2.173000000     5.667000000
O     5.340000000     7.758000000     2.844000000
H     5.960000000     7.971000000     3.541000000
H     5.102000000     6.845000000     3.005000000
O    -2.511000000     5.021000000     5.684000000
H    -3.124000000     4.867000000     6.402000000
H    -3.033000000     4.896000000     4.891000000
O     3.642000000     5.754000000     3.857000000
H     3.295000000     5.028000000     4.376000000
H     2.885000000     6.089000000     3.378000000
O    -1.765000000     3.199000000     8.240000000
H    -0.881000000     3.447000000     8.511000000
H    -2.197000000     4.030000000     8.043000000
O    -0.831000000     9.468000000     1.946000000
H    -1.002000000     8.533000000     2.062000000
H    -0.353000000     9.724000000     2.735000000
O     3.771000000     4.883000000     7.606000000
H     4.295000000     4.228000000     8.067000000
H     3.576000000     4.483000000     6.759000000
O     2.976000000     3.474000000     5.295000000
H     2.063000000     3.272000000     5.087000000
H     3.468000000     2.721000000     4.966000000
O    -1.188000000     6.668000000     2.494000000
H    -0.501000000     6.022000000     2.659000000
H    -2.005000000     6.175000000     2.578000000
O    -3.969000000     7.904000000     1.580000000
H    -3.092000000     7.536000000     1.476000000
H    -4.047000000     8.541000000     0.870000000
O     2.028000000     6.792000000     1.971000000
H     1.698000000     5.923000000     1.743000000
H     1.266000000     7.254000000     2.321000000
O     2.001000000     7.178000000     6.852000000
H     2.600000000     6.552000000     7.259000000
H     1.274000000     6.641000000     6.536000000
O     1.551000000     3.264000000     8.689000000
H     2.364000000     3.398000000     8.201000000
H     1.392000000     4.103000000     9.122000000
O    -3.598000000     4.742000000     2.971000000
H    -4.407000000     5.228000000     2.808000000
H    -3.826000000     3.830000000     2.788000000
