215
-1460.72424
C    -4.215000000     2.745000000    -1.670000000
H    -4.691000000     1.769000000    -1.729000000
C    -3.062000000     3.057000000    -2.398000000
C    -2.515000000     4.386000000    -2.376000000
H    -1.663000000     4.718000000    -2.963000000
C    -2.360000000     1.910000000    -3.236000000
O    -3.325000000     0.934000000    -3.671000000
H    -1.830000000     1.408000000    -2.413000000
O    -1.463000000     2.482000000    -4.269000000
C    -0.195000000     1.932000000    -4.353000000
C     0.772000000     2.611000000    -3.676000000
H     0.504000000     3.567000000    -3.235000000
C     1.978000000     1.984000000    -3.520000000
O     2.791000000     2.714000000    -2.699000000
C     2.271000000     0.711000000    -4.102000000
C     3.639000000     0.137000000    -4.002000000
H     4.005000000    -0.430000000    -4.860000000
C     3.702000000    -0.664000000    -2.753000000
C     3.578000000    -2.053000000    -2.749000000
H     3.204000000    -2.643000000    -3.582000000
H     4.381000000     0.936000000    -3.945000000
C     1.281000000     0.173000000    -4.880000000
H     1.526000000    -0.736000000    -5.424000000
C    -0.005000000     0.691000000    -4.904000000
C    -1.116000000    -0.145000000    -5.467000000
H    -0.590000000    -0.844000000    -6.120000000
H    -1.799000000     0.502000000    -6.021000000
C    -1.929000000    -0.899000000    -4.470000000
C    -1.624000000    -2.233000000    -4.269000000
H    -0.856000000    -2.671000000    -4.900000000
C    -2.947000000    -0.370000000    -3.660000000
C    -3.569000000    -1.100000000    -2.672000000
H    -4.229000000    -0.585000000    -1.979000000
C    -3.167000000    -2.413000000    -2.399000000
O    -3.658000000    -2.906000000    -1.196000000
C    -2.798000000    -2.938000000    -0.071000000
C    -3.445000000    -2.521000000     1.233000000
C    -3.003000000    -3.063000000     2.464000000
H    -2.096000000    -3.657000000     2.392000000
C    -4.447000000    -1.533000000     1.206000000
H    -4.528000000    -0.955000000     0.289000000
O    -2.198000000    -4.220000000    -0.021000000
H    -1.978000000    -2.225000000    -0.236000000
C    -2.200000000    -3.075000000    -3.289000000
C    -1.663000000    -4.429000000    -2.892000000
H    -1.303000000    -5.053000000    -3.713000000
H    -2.413000000    -5.057000000    -2.407000000
C    -0.538000000    -4.332000000    -1.826000000
C     0.798000000    -4.293000000    -2.244000000
H     0.994000000    -4.165000000    -3.305000000
C    -0.888000000    -4.341000000    -0.455000000
C     0.167000000    -4.311000000     0.470000000
H     0.034000000    -4.289000000     1.548000000
C     1.489000000    -4.387000000     0.029000000
O     2.396000000    -4.346000000     1.080000000
C     2.968000000    -3.071000000     1.381000000
C     3.077000000    -2.914000000     2.924000000
C     2.341000000    -3.710000000     3.809000000
H     1.828000000    -4.579000000     3.405000000
C     3.705000000    -1.804000000     3.476000000
H     4.167000000    -1.083000000     2.806000000
O     4.251000000    -2.808000000     0.709000000
H     2.199000000    -2.360000000     1.048000000
C     1.792000000    -4.303000000    -1.289000000
C     3.203000000    -4.273000000    -1.637000000
H     3.357000000    -4.691000000    -2.634000000
H     3.883000000    -4.816000000    -0.977000000
C     3.594000000    -2.808000000    -1.585000000
C     4.142000000    -2.158000000    -0.468000000
C     4.534000000    -0.825000000    -0.484000000
H     4.855000000    -0.359000000     0.444000000
C     4.259000000    -0.060000000    -1.625000000
O     4.452000000     1.298000000    -1.548000000
C     3.219000000     2.084000000    -1.461000000
H     2.374000000     1.441000000    -1.173000000
C     3.340000000     3.162000000    -0.393000000
C     2.402000000     4.198000000    -0.430000000
H     1.777000000     4.312000000    -1.313000000
C     4.201000000     2.998000000     0.677000000
H     4.766000000     2.075000000     0.780000000
C     4.127000000     3.869000000     1.753000000
O     4.843000000     3.698000000     2.921000000
C     3.185000000     4.923000000     1.752000000
H     3.190000000     5.672000000     2.540000000
C     2.354000000     5.134000000     0.630000000
O     1.469000000     6.182000000     0.662000000
C     0.774000000     6.631000000    -0.403000000
C    -0.599000000     6.431000000    -0.415000000
H    -1.182000000     5.948000000     0.365000000
C     1.461000000     7.274000000    -1.495000000
H     2.530000000     7.457000000    -1.427000000
C     0.686000000     7.691000000    -2.581000000
H     1.110000000     8.154000000    -3.469000000
C    -0.641000000     7.569000000    -2.540000000
H    -1.143000000     7.993000000    -3.406000000
C    -1.297000000     6.900000000    -1.518000000
O    -2.667000000     6.652000000    -1.584000000
C    -3.166000000     5.367000000    -1.652000000
C    -4.419000000     5.124000000    -1.122000000
H    -4.840000000     6.009000000    -0.650000000
C    -4.955000000     3.820000000    -1.108000000
O    -6.087000000     3.680000000    -0.413000000
C    -6.568000000     2.445000000    -0.042000000
C    -6.113000000     1.701000000     1.038000000
H    -5.255000000     1.982000000     1.643000000
C    -7.635000000     1.935000000    -0.833000000
H    -7.914000000     2.488000000    -1.727000000
C    -8.172000000     0.713000000    -0.601000000
H    -8.943000000     0.259000000    -1.219000000
C    -7.697000000    -0.078000000     0.492000000
H    -8.202000000    -1.022000000     0.682000000
C    -6.642000000     0.372000000     1.273000000
O    -6.285000000    -0.355000000     2.389000000
C    -5.221000000    -1.256000000     2.350000000
C    -4.814000000    -1.917000000     3.531000000
H    -5.504000000    -1.830000000     4.366000000
C    -3.656000000    -2.726000000     3.603000000
O    -3.326000000    -3.372000000     4.789000000
C    -2.228000000    -4.174000000     4.913000000
C    -0.975000000    -3.622000000     5.322000000
H    -0.908000000    -2.585000000     5.640000000
C    -2.279000000    -5.562000000     4.525000000
H    -3.228000000    -5.934000000     4.148000000
C    -1.155000000    -6.364000000     4.733000000
H    -1.070000000    -7.331000000     4.244000000
C     0.054000000    -5.825000000     5.065000000
H     0.896000000    -6.495000000     5.222000000
C     0.167000000    -4.487000000     5.481000000
O     1.340000000    -3.982000000     6.043000000
C     2.239000000    -3.357000000     5.160000000
C     2.929000000    -2.279000000     5.683000000
H     2.869000000    -2.068000000     6.748000000
C     3.629000000    -1.481000000     4.814000000
O     4.253000000    -0.351000000     5.379000000
C     5.024000000     0.581000000     4.849000000
C     6.392000000     0.348000000     4.582000000
H     6.782000000    -0.597000000     4.953000000
C     7.207000000     1.117000000     3.849000000
H     8.180000000     0.688000000     3.625000000
C     6.677000000     2.327000000     3.352000000
H     7.203000000     3.114000000     2.817000000
C     5.317000000     2.605000000     3.507000000
C     4.508000000     1.759000000     4.256000000
H     3.456000000     2.018000000     4.355000000
C     0.205000000     2.113000000     1.249000000
H     0.157000000     3.117000000     0.834000000
C     0.183000000     1.094000000     0.334000000
H     0.110000000     1.240000000    -0.740000000
C     0.202000000    -0.209000000     0.761000000
H     0.112000000    -1.035000000     0.095000000
C     0.326000000    -0.519000000     2.125000000
H     0.244000000    -1.548000000     2.464000000
C     0.431000000     0.476000000     3.021000000
H     0.557000000     0.241000000     4.075000000
C     0.340000000     1.801000000     2.592000000
C     0.348000000     2.905000000     3.610000000
O     0.586000000     2.614000000     4.773000000
O    -0.133000000     3.975000000     3.303000000
O    -2.886000000     7.299000000     3.953000000
H    -2.696000000     8.196000000     3.678000000
H    -2.033000000     6.866000000     3.967000000
O    -5.166000000     3.798000000     5.129000000
H    -4.330000000     4.163000000     4.841000000
H    -5.047000000     3.633000000     6.064000000
O    -2.373000000     4.179000000     5.019000000
H    -1.613000000     4.399000000     4.480000000
H    -2.254000000     3.255000000     5.235000000
O    -0.458000000     9.084000000     4.139000000
H    -0.528000000     8.243000000     3.687000000
H     0.391000000     9.049000000     4.579000000
O    -2.767000000     1.364000000     2.198000000
H    -2.958000000     1.224000000     3.126000000
H    -2.062000000     0.746000000     2.003000000
O    -1.806000000     1.614000000     5.834000000
H    -1.812000000     0.795000000     6.330000000
H    -0.881000000     1.771000000     5.644000000
O    -2.353000000     3.202000000     8.744000000
H    -2.280000000     2.862000000     7.852000000
H    -3.015000000     3.891000000     8.684000000
O     1.061000000     5.498000000     5.444000000
H     0.811000000     5.298000000     6.346000000
H     0.845000000     4.705000000     4.954000000
O     1.620000000     8.212000000     5.739000000
H     1.531000000     7.267000000     5.615000000
H     1.706000000     8.322000000     6.687000000
O    -0.534000000    -0.132000000     7.610000000
H    -0.506000000    -0.959000000     8.090000000
H    -0.662000000     0.533000000     8.286000000
O     0.650000000     5.075000000     8.110000000
H     0.213000000     4.400000000     8.628000000
H     0.156000000     5.874000000     8.293000000
O    -3.464000000     6.260000000     7.116000000
H    -2.577000000     6.534000000     7.349000000
H    -3.353000000     5.742000000     6.318000000
O     3.469000000     4.914000000     8.037000000
H     3.686000000     5.349000000     8.861000000
H     2.513000000     4.928000000     8.003000000
O    -4.302000000     6.399000000     1.734000000
H    -3.769000000     6.714000000     2.464000000
H    -3.962000000     5.523000000     1.550000000
O     4.422000000     5.902000000     5.382000000
H     3.588000000     5.943000000     4.914000000
H     4.178000000     5.747000000     6.294000000
O    -0.098000000     6.568000000     3.183000000
H     0.288000000     5.889000000     3.736000000
H    -0.385000000     6.103000000     2.397000000
O     4.477000000     2.548000000     7.631000000
H     3.604000000     2.252000000     7.372000000
H     4.416000000     3.504000000     7.627000000
O     1.615000000     1.651000000     7.069000000
H     1.192000000     2.047000000     6.307000000
H     1.388000000     0.722000000     7.013000000
O    -2.616000000     4.286000000     1.791000000
H    -1.946000000     4.227000000     2.472000000
H    -2.680000000     3.397000000     1.440000000
