215
-1500.97963
C    -3.617000000     0.529000000    -4.146000000
H    -3.968000000    -0.499000000    -4.113000000
C    -2.235000000     0.814000000    -4.116000000
C    -1.846000000     2.134000000    -4.139000000
H    -0.777000000     2.329000000    -4.176000000
C    -1.176000000    -0.319000000    -4.070000000
O    -1.752000000    -1.618000000    -4.595000000
H    -1.023000000    -0.419000000    -2.985000000
O     0.011000000     0.047000000    -4.748000000
C     1.189000000    -0.263000000    -4.189000000
C     1.990000000     0.849000000    -3.812000000
H     1.527000000     1.832000000    -3.807000000
C     3.266000000     0.715000000    -3.284000000
O     3.877000000     1.746000000    -2.634000000
C     3.669000000    -0.589000000    -3.087000000
C     4.948000000    -0.862000000    -2.389000000
H     5.383000000    -1.810000000    -2.713000000
C     4.752000000    -0.981000000    -0.883000000
C     4.601000000    -2.240000000    -0.313000000
H     4.557000000    -3.142000000    -0.917000000
H     5.664000000    -0.068000000    -2.609000000
C     2.938000000    -1.713000000    -3.551000000
H     3.231000000    -2.722000000    -3.274000000
C     1.741000000    -1.545000000    -4.209000000
C     1.020000000    -2.779000000    -4.790000000
H     1.692000000    -3.618000000    -4.982000000
H     0.549000000    -2.426000000    -5.710000000
C    -0.118000000    -3.265000000    -3.862000000
C     0.116000000    -4.246000000    -2.944000000
H     1.062000000    -4.741000000    -3.150000000
C    -1.376000000    -2.679000000    -3.799000000
C    -2.280000000    -2.946000000    -2.785000000
H    -3.212000000    -2.386000000    -2.768000000
C    -1.954000000    -3.878000000    -1.765000000
O    -2.857000000    -3.899000000    -0.719000000
C    -2.520000000    -3.335000000     0.525000000
C    -3.788000000    -2.736000000     1.184000000
C    -3.833000000    -2.518000000     2.567000000
H    -3.045000000    -2.869000000     3.229000000
C    -4.766000000    -2.159000000     0.359000000
H    -4.753000000    -2.291000000    -0.720000000
O    -1.923000000    -4.346000000     1.420000000
H    -1.794000000    -2.514000000     0.430000000
C    -0.764000000    -4.547000000    -1.900000000
C    -0.316000000    -5.452000000    -0.791000000
H     0.390000000    -6.133000000    -1.270000000
H    -1.173000000    -6.085000000    -0.553000000
C     0.212000000    -4.699000000     0.425000000
C     1.592000000    -4.508000000     0.484000000
H     2.094000000    -4.914000000    -0.391000000
C    -0.572000000    -4.240000000     1.487000000
C     0.017000000    -3.509000000     2.498000000
H    -0.568000000    -3.160000000     3.345000000
C     1.373000000    -3.241000000     2.497000000
O     1.896000000    -2.546000000     3.565000000
C     2.430000000    -1.281000000     3.320000000
C     1.926000000    -0.310000000     4.397000000
C     0.616000000    -0.376000000     4.842000000
H    -0.028000000    -1.181000000     4.499000000
C     2.655000000     0.784000000     4.841000000
H     3.672000000     0.895000000     4.474000000
O     3.922000000    -1.317000000     3.224000000
H     2.085000000    -0.803000000     2.392000000
C     2.200000000    -3.810000000     1.501000000
C     3.698000000    -3.736000000     1.584000000
H     4.069000000    -4.535000000     0.939000000
H     3.951000000    -4.000000000     2.614000000
C     4.235000000    -2.385000000     1.047000000
C     4.282000000    -1.304000000     1.907000000
C     4.559000000    -0.043000000     1.365000000
H     4.466000000     0.839000000     1.994000000
C     4.731000000     0.138000000    -0.002000000
O     4.722000000     1.398000000    -0.477000000
C     3.609000000     1.882000000    -1.196000000
H     2.731000000     1.271000000    -0.939000000
C     3.344000000     3.336000000    -0.826000000
C     2.815000000     4.279000000    -1.759000000
H     2.578000000     3.905000000    -2.752000000
C     3.350000000     3.673000000     0.528000000
H     3.606000000     2.907000000     1.255000000
C     2.928000000     4.942000000     0.947000000
O     2.912000000     5.273000000     2.282000000
C     2.532000000     5.847000000     0.025000000
H     2.258000000     6.828000000     0.404000000
C     2.306000000     5.507000000    -1.310000000
O     1.752000000     6.446000000    -2.218000000
C     0.977000000     5.843000000    -3.269000000
C    -0.348000000     5.481000000    -3.061000000
H    -0.718000000     5.396000000    -2.043000000
C     1.592000000     5.634000000    -4.528000000
H     2.621000000     5.924000000    -4.722000000
C     0.846000000     5.119000000    -5.606000000
H     1.253000000     4.842000000    -6.575000000
C    -0.472000000     4.753000000    -5.425000000
H    -0.969000000     4.173000000    -6.199000000
C    -1.059000000     4.938000000    -4.161000000
O    -2.368000000     4.507000000    -3.964000000
C    -2.732000000     3.188000000    -4.055000000
C    -4.069000000     2.931000000    -4.022000000
H    -4.822000000     3.705000000    -3.903000000
C    -4.501000000     1.610000000    -4.109000000
O    -5.831000000     1.374000000    -4.077000000
C    -6.337000000     0.334000000    -3.331000000
C    -6.097000000     0.134000000    -1.965000000
H    -5.479000000     0.814000000    -1.385000000
C    -7.078000000    -0.638000000    -3.994000000
H    -7.116000000    -0.640000000    -5.080000000
C    -7.708000000    -1.674000000    -3.316000000
H    -8.310000000    -2.378000000    -3.885000000
C    -7.586000000    -1.715000000    -1.903000000
H    -8.173000000    -2.469000000    -1.384000000
C    -6.852000000    -0.804000000    -1.242000000
O    -6.769000000    -0.782000000     0.128000000
C    -5.817000000    -1.450000000     0.907000000
C    -5.847000000    -1.242000000     2.287000000
H    -6.704000000    -0.771000000     2.760000000
C    -4.899000000    -1.815000000     3.122000000
O    -4.988000000    -1.339000000     4.425000000
C    -3.957000000    -1.483000000     5.262000000
C    -3.079000000    -0.408000000     5.481000000
H    -3.265000000     0.482000000     4.884000000
C    -3.682000000    -2.610000000     6.015000000
H    -4.323000000    -3.484000000     5.927000000
C    -2.613000000    -2.740000000     6.928000000
H    -2.423000000    -3.727000000     7.343000000
C    -1.760000000    -1.651000000     7.071000000
H    -0.850000000    -1.826000000     7.638000000
C    -1.994000000    -0.518000000     6.287000000
O    -1.126000000     0.533000000     6.321000000
C     0.088000000     0.601000000     5.750000000
C     0.843000000     1.650000000     6.199000000
H     0.382000000     2.368000000     6.872000000
C     2.201000000     1.733000000     5.785000000
O     3.108000000     2.703000000     6.182000000
C     3.756000000     3.435000000     5.245000000
C     5.108000000     3.576000000     5.343000000
H     5.588000000     3.223000000     6.252000000
C     5.781000000     4.142000000     4.256000000
H     6.861000000     4.216000000     4.350000000
C     5.098000000     4.762000000     3.208000000
H     5.585000000     5.323000000     2.415000000
C     3.687000000     4.593000000     3.162000000
C     3.047000000     3.850000000     4.129000000
H     1.990000000     3.627000000     4.011000000
C    -0.361000000     1.712000000     1.939000000
H    -0.478000000     1.904000000     3.002000000
C    -0.329000000     0.404000000     1.519000000
H    -0.362000000    -0.411000000     2.237000000
C    -0.208000000     0.160000000     0.135000000
H    -0.220000000    -0.872000000    -0.214000000
C    -0.225000000     1.189000000    -0.782000000
H    -0.174000000     0.954000000    -1.842000000
C    -0.352000000     2.521000000    -0.326000000
H    -0.346000000     3.305000000    -1.079000000
C    -0.454000000     2.808000000     1.058000000
C    -0.620000000     4.238000000     1.575000000
O    -0.591000000     5.242000000     0.848000000
O    -0.698000000     4.275000000     2.824000000
O    -2.891000000     3.049000000     6.028000000
H    -2.468000000     2.237000000     6.307000000
H    -2.186000000     3.697000000     6.023000000
O    -5.364000000     3.647000000     5.161000000
H    -5.303000000     4.568000000     5.416000000
H    -4.727000000     3.201000000     5.720000000
O    -4.592000000     5.625000000     2.313000000
H    -4.112000000     5.772000000     3.128000000
H    -4.892000000     4.718000000     2.372000000
O    -6.013000000     2.557000000     2.033000000
H    -5.428000000     1.991000000     1.528000000
H    -5.628000000     2.578000000     2.909000000
O     0.263000000     6.716000000     3.698000000
H     0.517000000     7.331000000     3.009000000
H    -0.188000000     6.011000000     3.234000000
O    -4.599000000     6.081000000     6.414000000
H    -3.732000000     6.301000000     6.073000000
H    -5.188000000     6.709000000     5.995000000
O     2.528000000     5.519000000     7.301000000
H     2.673000000     4.753000000     6.746000000
H     2.150000000     5.164000000     8.105000000
O     0.730000000     9.068000000     2.106000000
H     0.277000000     8.967000000     1.269000000
H     1.644000000     9.220000000     1.867000000
O    -0.779000000     4.769000000     5.592000000
H    -0.723000000     4.562000000     4.659000000
H    -0.344000000     5.618000000     5.676000000
O    -0.652000000     7.675000000    -0.520000000
H    -0.848000000     7.030000000     0.159000000
H     0.002000000     7.249000000    -1.074000000
O    -3.607000000     1.836000000     0.165000000
H    -3.419000000     1.428000000     1.011000000
H    -2.778000000     1.790000000    -0.312000000
O    -5.652000000     4.007000000    -0.594000000
H    -4.708000000     4.063000000    -0.738000000
H    -5.741000000     3.772000000     0.329000000
O    -4.837000000     7.489000000    -1.645000000
H    -5.525000000     7.291000000    -1.010000000
H    -4.054000000     7.066000000    -1.291000000
O    -2.944000000     5.467000000    -0.016000000
H    -3.580000000     5.480000000     0.699000000
H    -2.111000000     5.262000000     0.408000000
O     2.799000000     7.191000000     5.126000000
H     1.981000000     7.141000000     4.631000000
H     2.593000000     6.790000000     5.970000000
O    -2.051000000    10.374000000    -1.285000000
H    -2.021000000     9.445000000    -1.057000000
H    -1.386000000    10.475000000    -1.967000000
O    -2.520000000     7.361000000     4.710000000
H    -2.597000000     8.315000000     4.709000000
H    -1.582000000     7.196000000     4.607000000
O    -3.203000000     2.890000000     3.176000000
H    -3.341000000     3.155000000     4.085000000
H    -2.313000000     3.179000000     2.975000000
O    -5.178000000     8.313000000     1.390000000
H    -4.584000000     7.608000000     1.646000000
H    -5.940000000     7.863000000     1.024000000
