215
-1453.67788
C    -4.981000000     1.682000000    -0.796000000
H    -5.202000000     0.623000000    -0.905000000
C    -4.042000000     2.253000000    -1.616000000
C    -3.615000000     3.540000000    -1.326000000
H    -2.759000000     3.969000000    -1.842000000
C    -3.103000000     1.455000000    -2.543000000
O    -3.810000000     0.411000000    -3.251000000
H    -2.312000000     0.975000000    -1.949000000
O    -2.461000000     2.425000000    -3.486000000
C    -1.131000000     2.206000000    -3.785000000
C    -0.092000000     3.010000000    -3.312000000
H    -0.434000000     3.944000000    -2.872000000
C     1.228000000     2.618000000    -3.481000000
O     2.186000000     3.414000000    -2.898000000
C     1.617000000     1.461000000    -4.119000000
C     3.074000000     1.124000000    -4.369000000
H     3.287000000     0.490000000    -5.232000000
C     3.748000000     0.467000000    -3.222000000
C     3.693000000    -0.926000000    -3.298000000
H     3.104000000    -1.443000000    -4.051000000
H     3.617000000     2.046000000    -4.588000000
C     0.620000000     0.620000000    -4.587000000
H     0.796000000    -0.373000000    -4.994000000
C    -0.690000000     1.058000000    -4.521000000
C    -1.711000000     0.212000000    -5.237000000
H    -1.244000000    -0.128000000    -6.164000000
H    -2.565000000     0.817000000    -5.551000000
C    -2.215000000    -0.990000000    -4.317000000
C    -1.495000000    -2.167000000    -4.230000000
H    -0.770000000    -2.394000000    -5.008000000
C    -3.267000000    -0.844000000    -3.471000000
C    -3.553000000    -1.760000000    -2.483000000
H    -4.273000000    -1.513000000    -1.707000000
C    -2.839000000    -2.944000000    -2.342000000
O    -3.150000000    -3.642000000    -1.180000000
C    -2.250000000    -3.642000000    -0.126000000
C    -2.901000000    -3.759000000     1.176000000
C    -2.238000000    -4.269000000     2.296000000
H    -1.312000000    -4.803000000     2.094000000
C    -4.076000000    -3.001000000     1.435000000
H    -4.585000000    -2.602000000     0.561000000
O    -1.260000000    -4.724000000    -0.357000000
H    -1.740000000    -2.672000000    -0.031000000
C    -1.745000000    -3.115000000    -3.196000000
C    -0.864000000    -4.376000000    -3.200000000
H    -0.362000000    -4.471000000    -4.165000000
H    -1.630000000    -5.154000000    -3.181000000
C     0.178000000    -4.171000000    -2.197000000
C     1.440000000    -3.804000000    -2.648000000
H     1.559000000    -3.728000000    -3.726000000
C     0.029000000    -4.391000000    -0.827000000
C     1.100000000    -4.290000000     0.047000000
H     0.890000000    -4.394000000     1.108000000
C     2.331000000    -3.790000000    -0.414000000
O     3.285000000    -3.466000000     0.510000000
C     3.518000000    -2.168000000     0.898000000
C     3.578000000    -1.914000000     2.402000000
C     2.918000000    -2.849000000     3.216000000
H     2.474000000    -3.786000000     2.888000000
C     4.038000000    -0.680000000     2.887000000
H     4.488000000    -0.056000000     2.119000000
O     4.709000000    -1.617000000     0.222000000
H     2.679000000    -1.563000000     0.525000000
C     2.534000000    -3.562000000    -1.790000000
C     3.911000000    -3.199000000    -2.348000000
H     4.053000000    -3.551000000    -3.372000000
H     4.661000000    -3.655000000    -1.699000000
C     4.152000000    -1.650000000    -2.201000000
C     4.439000000    -0.967000000    -0.999000000
C     4.634000000     0.427000000    -0.974000000
H     4.967000000     0.887000000    -0.047000000
C     4.247000000     1.138000000    -2.095000000
O     4.113000000     2.467000000    -2.016000000
C     2.840000000     2.963000000    -1.701000000
H     2.184000000     2.245000000    -1.187000000
C     2.914000000     4.079000000    -0.698000000
C     1.821000000     4.978000000    -0.580000000
H     0.942000000     4.829000000    -1.202000000
C     3.827000000     4.027000000     0.359000000
H     4.570000000     3.235000000     0.335000000
C     3.867000000     4.931000000     1.371000000
O     4.782000000     4.876000000     2.409000000
C     2.832000000     5.902000000     1.438000000
H     2.877000000     6.591000000     2.278000000
C     1.829000000     5.927000000     0.410000000
O     0.814000000     6.892000000     0.423000000
C    -0.375000000     6.791000000    -0.330000000
C    -1.453000000     6.161000000     0.123000000
H    -1.478000000     5.858000000     1.166000000
C    -0.390000000     7.399000000    -1.556000000
H     0.527000000     7.908000000    -1.840000000
C    -1.559000000     7.415000000    -2.346000000
H    -1.627000000     7.826000000    -3.350000000
C    -2.686000000     6.745000000    -1.871000000
H    -3.638000000     6.858000000    -2.385000000
C    -2.616000000     6.110000000    -0.624000000
O    -3.815000000     5.626000000    -0.057000000
C    -4.284000000     4.337000000    -0.391000000
C    -5.239000000     3.774000000     0.378000000
H    -5.681000000     4.278000000     1.233000000
C    -5.677000000     2.429000000     0.119000000
O    -6.784000000     1.952000000     0.796000000
C    -6.966000000     0.565000000     0.917000000
C    -6.357000000    -0.211000000     1.898000000
H    -5.683000000     0.171000000     2.660000000
C    -7.733000000    -0.058000000    -0.074000000
H    -8.197000000     0.544000000    -0.851000000
C    -8.023000000    -1.361000000     0.001000000
H    -8.788000000    -1.780000000    -0.649000000
C    -7.479000000    -2.108000000     1.012000000
H    -7.686000000    -3.171000000     1.099000000
C    -6.511000000    -1.575000000     1.844000000
O    -5.889000000    -2.390000000     2.790000000
C    -4.705000000    -3.002000000     2.677000000
C    -4.131000000    -3.708000000     3.724000000
H    -4.572000000    -3.641000000     4.715000000
C    -2.883000000    -4.275000000     3.516000000
O    -2.273000000    -4.811000000     4.662000000
C    -0.924000000    -5.109000000     4.663000000
C    -0.046000000    -4.047000000     4.953000000
H    -0.391000000    -3.027000000     5.101000000
C    -0.524000000    -6.422000000     4.534000000
H    -1.235000000    -7.237000000     4.425000000
C     0.832000000    -6.727000000     4.723000000
H     1.176000000    -7.755000000     4.633000000
C     1.727000000    -5.682000000     5.081000000
H     2.767000000    -5.947000000     5.253000000
C     1.305000000    -4.356000000     5.163000000
O     2.122000000    -3.312000000     5.473000000
C     2.812000000    -2.530000000     4.596000000
C     3.375000000    -1.327000000     5.100000000
H     3.364000000    -1.007000000     6.139000000
C     4.018000000    -0.429000000     4.226000000
O     4.511000000     0.728000000     4.782000000
C     5.219000000     1.617000000     4.073000000
C     6.614000000     1.519000000     4.065000000
H     7.166000000     0.645000000     4.399000000
C     7.380000000     2.376000000     3.438000000
H     8.455000000     2.228000000     3.375000000
C     6.737000000     3.460000000     2.783000000
H     7.299000000     4.162000000     2.172000000
C     5.372000000     3.680000000     2.898000000
C     4.635000000     2.758000000     3.542000000
H     3.563000000     2.765000000     3.723000000
C    -0.218000000     1.995000000     1.596000000
H    -0.454000000     3.048000000     1.725000000
C    -0.020000000     1.419000000     0.330000000
H    -0.084000000     1.995000000    -0.589000000
C     0.346000000     0.071000000     0.194000000
H     0.565000000    -0.398000000    -0.799000000
C     0.491000000    -0.701000000     1.351000000
H     0.711000000    -1.765000000     1.331000000
C     0.243000000    -0.216000000     2.617000000
H     0.404000000    -0.793000000     3.524000000
C    -0.028000000     1.191000000     2.728000000
C    -0.387000000     1.829000000     4.041000000
O    -1.141000000     1.235000000     4.791000000
O     0.022000000     2.948000000     4.350000000
O    -3.905000000     6.997000000     5.495000000
H    -4.416000000     7.745000000     5.186000000
H    -3.924000000     6.377000000     4.766000000
O    -5.855000000     1.122000000     5.368000000
H    -5.582000000     0.211000000     5.476000000
H    -6.678000000     1.070000000     4.882000000
O    -0.984000000     5.222000000     5.111000000
H    -0.542000000     4.414000000     4.850000000
H    -1.757000000     5.265000000     4.547000000
O     0.983000000     7.419000000     3.729000000
H     1.126000000     6.483000000     3.867000000
H     0.031000000     7.512000000     3.688000000
O    -3.437000000     2.548000000     4.747000000
H    -4.110000000     2.081000000     5.242000000
H    -2.661000000     1.992000000     4.816000000
O    -2.612000000    -0.839000000     4.890000000
H    -1.953000000    -0.145000000     4.890000000
H    -2.552000000    -1.227000000     4.017000000
O    -3.480000000     4.493000000     6.776000000
H    -3.172000000     4.034000000     5.995000000
H    -3.447000000     5.420000000     6.537000000
O     0.470000000     1.865000000     7.184000000
H    -0.036000000     2.155000000     6.425000000
H     0.479000000     0.911000000     7.117000000
O    -1.547000000     8.150000000     3.935000000
H    -1.843000000     7.631000000     4.683000000
H    -1.624000000     9.058000000     4.227000000
O    -1.983000000    -1.640000000     7.530000000
H    -2.329000000    -2.481000000     7.233000000
H    -2.059000000    -1.066000000     6.768000000
O    -2.328000000     0.404000000     9.537000000
H    -2.132000000     1.173000000     9.001000000
H    -2.656000000    -0.244000000     8.914000000
O     3.969000000     5.663000000     5.854000000
H     3.698000000     6.581000000     5.812000000
H     3.343000000     5.203000000     5.296000000
O     0.272000000     7.074000000     6.692000000
H    -0.013000000     6.200000000     6.425000000
H     0.499000000     7.513000000     5.872000000
O     2.194000000     4.611000000     4.257000000
H     2.778000000     4.203000000     3.617000000
H     1.429000000     4.036000000     4.283000000
O     0.539000000    -0.819000000     7.714000000
H    -0.407000000    -0.953000000     7.662000000
H     0.868000000    -1.603000000     8.153000000
O    -1.624000000     3.530000000     8.760000000
H    -2.318000000     3.911000000     8.223000000
H    -1.045000000     3.097000000     8.132000000
O     3.144000000     2.453000000     7.936000000
H     2.320000000     2.203000000     7.517000000
H     3.647000000     2.876000000     7.240000000
O    -3.377000000     5.123000000     3.658000000
H    -3.465000000     4.184000000     3.819000000
H    -3.450000000     5.212000000     2.708000000
O     2.562000000     0.523000000     9.950000000
H     2.630000000     1.354000000     9.479000000
H     1.987000000    -0.014000000     9.405000000
