215
-1460.12323
C    -4.042000000     1.891000000    -1.183000000
H    -4.262000000     0.834000000    -1.313000000
C    -3.110000000     2.487000000    -2.076000000
C    -2.777000000     3.841000000    -1.901000000
H    -2.148000000     4.337000000    -2.636000000
C    -2.430000000     1.543000000    -3.151000000
O    -3.224000000     0.507000000    -3.690000000
H    -1.659000000     1.038000000    -2.551000000
O    -1.728000000     2.313000000    -4.153000000
C    -0.400000000     1.916000000    -4.367000000
C     0.573000000     2.776000000    -3.847000000
H     0.325000000     3.786000000    -3.530000000
C     1.784000000     2.252000000    -3.599000000
O     2.621000000     3.089000000    -2.852000000
C     2.231000000     1.094000000    -4.245000000
C     3.681000000     0.592000000    -4.121000000
H     3.897000000     0.021000000    -5.027000000
C     3.849000000    -0.102000000    -2.835000000
C     3.760000000    -1.473000000    -2.812000000
H     3.548000000    -2.153000000    -3.633000000
H     4.387000000     1.425000000    -4.144000000
C     1.301000000     0.322000000    -4.953000000
H     1.621000000    -0.595000000    -5.442000000
C    -0.042000000     0.691000000    -4.887000000
C    -1.143000000    -0.139000000    -5.540000000
H    -0.647000000    -0.733000000    -6.310000000
H    -1.870000000     0.504000000    -6.041000000
C    -1.708000000    -1.155000000    -4.506000000
C    -1.144000000    -2.441000000    -4.336000000
H    -0.325000000    -2.826000000    -4.938000000
C    -2.807000000    -0.781000000    -3.735000000
C    -3.407000000    -1.781000000    -2.860000000
H    -4.292000000    -1.612000000    -2.253000000
C    -2.836000000    -3.001000000    -2.592000000
O    -3.360000000    -3.757000000    -1.555000000
C    -2.608000000    -3.823000000    -0.326000000
C    -3.507000000    -3.728000000     0.893000000
C    -3.017000000    -4.231000000     2.136000000
H    -2.025000000    -4.674000000     2.185000000
C    -4.710000000    -3.091000000     0.929000000
H    -5.062000000    -2.772000000    -0.049000000
O    -1.694000000    -4.937000000    -0.263000000
H    -1.968000000    -2.932000000    -0.407000000
C    -1.709000000    -3.359000000    -3.424000000
C    -1.004000000    -4.629000000    -3.074000000
H    -0.444000000    -5.093000000    -3.888000000
H    -1.763000000    -5.364000000    -2.801000000
C     0.018000000    -4.534000000    -1.989000000
C     1.340000000    -4.235000000    -2.206000000
H     1.553000000    -4.069000000    -3.259000000
C    -0.364000000    -4.736000000    -0.637000000
C     0.573000000    -4.582000000     0.389000000
H     0.341000000    -4.752000000     1.437000000
C     1.871000000    -4.144000000     0.166000000
O     2.682000000    -3.908000000     1.247000000
C     2.971000000    -2.476000000     1.462000000
C     2.982000000    -2.099000000     3.004000000
C     2.262000000    -2.843000000     3.917000000
H     1.771000000    -3.768000000     3.622000000
C     3.626000000    -0.960000000     3.515000000
H     4.177000000    -0.461000000     2.722000000
O     4.226000000    -2.116000000     0.886000000
H     2.201000000    -1.830000000     1.014000000
C     2.278000000    -4.094000000    -1.180000000
C     3.748000000    -3.688000000    -1.605000000
H     3.866000000    -4.191000000    -2.567000000
H     4.402000000    -4.078000000    -0.822000000
C     3.860000000    -2.163000000    -1.587000000
C     4.208000000    -1.499000000    -0.398000000
C     4.426000000    -0.137000000    -0.444000000
H     4.546000000     0.414000000     0.486000000
C     4.136000000     0.550000000    -1.653000000
O     4.093000000     1.933000000    -1.536000000
C     2.834000000     2.622000000    -1.512000000
H     2.001000000     1.987000000    -1.178000000
C     2.921000000     3.784000000    -0.591000000
C     2.211000000     4.923000000    -0.836000000
H     1.640000000     5.014000000    -1.756000000
C     3.654000000     3.672000000     0.557000000
H     4.126000000     2.747000000     0.879000000
C     3.751000000     4.779000000     1.418000000
O     4.432000000     4.695000000     2.641000000
C     3.232000000     6.023000000     1.103000000
H     3.234000000     6.861000000     1.796000000
C     2.399000000     6.070000000    -0.034000000
O     1.637000000     7.221000000    -0.134000000
C     0.372000000     7.288000000    -0.773000000
C    -0.698000000     6.425000000    -0.454000000
H    -0.634000000     5.638000000     0.292000000
C     0.191000000     8.145000000    -1.785000000
H     1.083000000     8.667000000    -2.120000000
C    -0.994000000     8.401000000    -2.444000000
H    -1.092000000     9.143000000    -3.232000000
C    -2.094000000     7.675000000    -2.026000000
H    -3.101000000     7.817000000    -2.408000000
C    -1.903000000     6.614000000    -1.083000000
O    -3.019000000     5.921000000    -0.675000000
C    -3.215000000     4.550000000    -0.795000000
C    -4.135000000     3.958000000     0.102000000
H    -4.597000000     4.538000000     0.897000000
C    -4.520000000     2.682000000    -0.104000000
O    -5.251000000     2.099000000     0.904000000
C    -6.131000000     1.038000000     0.704000000
C    -6.017000000    -0.106000000     1.489000000
H    -5.434000000    -0.272000000     2.392000000
C    -6.963000000     0.956000000    -0.430000000
H    -7.058000000     1.835000000    -1.062000000
C    -7.875000000    -0.088000000    -0.616000000
H    -8.660000000    -0.078000000    -1.369000000
C    -7.755000000    -1.208000000     0.198000000
H    -8.479000000    -2.011000000     0.091000000
C    -6.909000000    -1.165000000     1.232000000
O    -6.749000000    -2.398000000     2.016000000
C    -5.552000000    -3.067000000     2.028000000
C    -5.077000000    -3.581000000     3.246000000
H    -5.783000000    -3.543000000     4.072000000
C    -3.756000000    -4.028000000     3.259000000
O    -3.196000000    -4.301000000     4.530000000
C    -1.901000000    -4.635000000     4.802000000
C    -0.969000000    -3.693000000     5.273000000
H    -1.220000000    -2.650000000     5.450000000
C    -1.415000000    -5.965000000     4.642000000
H    -2.098000000    -6.750000000     4.326000000
C    -0.110000000    -6.383000000     5.012000000
H     0.073000000    -7.442000000     4.854000000
C     0.823000000    -5.388000000     5.580000000
H     1.853000000    -5.677000000     5.771000000
C     0.340000000    -4.006000000     5.700000000
O     1.197000000    -2.956000000     6.101000000
C     2.096000000    -2.336000000     5.238000000
C     2.668000000    -1.141000000     5.734000000
H     2.523000000    -0.732000000     6.731000000
C     3.447000000    -0.456000000     4.818000000
O     4.107000000     0.661000000     5.275000000
C     4.855000000     1.530000000     4.475000000
C     6.253000000     1.352000000     4.504000000
H     6.660000000     0.440000000     4.935000000
C     7.038000000     2.231000000     3.668000000
H     8.106000000     2.045000000     3.593000000
C     6.443000000     3.393000000     3.135000000
H     7.062000000     4.041000000     2.520000000
C     5.041000000     3.559000000     3.143000000
C     4.292000000     2.665000000     3.916000000
H     3.225000000     2.799000000     4.071000000
C    -0.377000000     1.548000000     0.207000000
H    -0.207000000     2.528000000    -0.233000000
C     0.035000000     0.358000000    -0.488000000
H     0.469000000     0.415000000    -1.483000000
C    -0.228000000    -0.850000000     0.102000000
H    -0.048000000    -1.814000000    -0.457000000
C    -0.767000000    -0.928000000     1.361000000
H    -1.062000000    -1.813000000     1.920000000
C    -0.992000000     0.261000000     2.052000000
H    -1.361000000     0.249000000     3.075000000
C    -0.849000000     1.530000000     1.498000000
C    -1.358000000     2.716000000     2.276000000
O    -1.907000000     2.517000000     3.350000000
O    -1.326000000     3.847000000     1.781000000
O    -3.157000000     7.331000000     4.505000000
H    -2.735000000     8.189000000     4.459000000
H    -2.889000000     6.889000000     3.700000000
O    -4.725000000    -0.932000000     5.510000000
H    -5.606000000    -0.908000000     5.136000000
H    -4.629000000    -1.825000000     5.842000000
O    -1.431000000     9.540000000     5.464000000
H    -1.996000000     9.265000000     6.186000000
H    -0.839000000     8.799000000     5.328000000
O    -2.827000000     3.734000000     5.414000000
H    -3.387000000     3.167000000     5.944000000
H    -2.577000000     3.192000000     4.666000000
O    -2.280000000     0.894000000     5.305000000
H    -2.374000000     1.462000000     4.540000000
H    -2.989000000     0.257000000     5.219000000
O     4.639000000     5.749000000     5.676000000
H     4.926000000     6.060000000     4.818000000
H     3.806000000     5.310000000     5.505000000
O    -3.630000000     5.808000000     6.926000000
H    -3.596000000     4.974000000     6.458000000
H    -3.211000000     6.433000000     6.334000000
O    -0.011000000     3.064000000     5.499000000
H    -0.169000000     2.960000000     4.561000000
H    -0.859000000     2.888000000     5.906000000
O    -7.523000000     4.258000000     4.813000000
H    -8.245000000     3.709000000     4.507000000
H    -6.804000000     4.065000000     4.211000000
O     2.074000000     4.694000000     5.205000000
H     1.480000000     3.977000000     5.425000000
H     1.666000000     5.120000000     4.451000000
O     0.278000000     7.448000000     5.588000000
H     0.054000000     6.730000000     6.180000000
H     0.065000000     7.115000000     4.717000000
O     2.599000000     1.796000000     7.580000000
H     2.825000000     1.809000000     6.650000000
H     1.710000000     2.149000000     7.616000000
O    -7.863000000     5.162000000     0.911000000
H    -7.469000000     6.018000000     1.080000000
H    -7.650000000     4.643000000     1.686000000
O    -6.087000000     3.406000000     7.375000000
H    -6.517000000     3.818000000     6.626000000
H    -6.171000000     2.466000000     7.213000000
O     0.088000000     5.700000000     3.392000000
H    -0.733000000     5.531000000     3.855000000
H     0.053000000     5.125000000     2.627000000
O    -0.989000000     5.663000000     7.973000000
H    -1.837000000     5.510000000     7.555000000
H    -0.672000000     4.788000000     8.198000000
O    -0.386000000     0.661000000     7.560000000
H    -0.904000000     0.767000000     6.762000000
H    -0.962000000     0.964000000     8.262000000
O    -2.863000000     6.123000000     2.160000000
H    -2.636000000     5.201000000     2.040000000
H    -2.862000000     6.487000000     1.274000000
O    -5.388000000     3.634000000     3.228000000
H    -5.449000000     3.164000000     2.395000000
H    -4.494000000     3.974000000     3.246000000
