215
-1440.50108
C    -4.671000000     1.881000000    -1.500000000
H    -4.861000000     0.814000000    -1.410000000
C    -3.693000000     2.464000000    -2.320000000
C    -3.376000000     3.785000000    -2.234000000
H    -2.586000000     4.194000000    -2.859000000
C    -2.715000000     1.525000000    -3.088000000
O    -3.325000000     0.306000000    -3.543000000
H    -1.961000000     1.286000000    -2.323000000
O    -2.065000000     2.201000000    -4.167000000
C    -0.703000000     1.886000000    -4.267000000
C     0.124000000     2.702000000    -3.553000000
H    -0.320000000     3.593000000    -3.117000000
C     1.482000000     2.418000000    -3.485000000
O     2.324000000     3.129000000    -2.803000000
C     2.002000000     1.331000000    -4.221000000
C     3.503000000     1.032000000    -4.135000000
H     3.983000000     0.465000000    -4.935000000
C     3.945000000     0.273000000    -2.807000000
C     3.952000000    -1.108000000    -2.846000000
H     3.741000000    -1.599000000    -3.792000000
H     4.072000000     1.962000000    -4.200000000
C     1.126000000     0.386000000    -4.786000000
H     1.551000000    -0.497000000    -5.257000000
C    -0.220000000     0.665000000    -4.808000000
C    -1.112000000    -0.306000000    -5.407000000
H    -0.505000000    -0.833000000    -6.146000000
H    -1.912000000     0.255000000    -5.896000000
C    -1.652000000    -1.279000000    -4.361000000
C    -1.023000000    -2.541000000    -4.231000000
H    -0.220000000    -2.763000000    -4.929000000
C    -2.719000000    -0.927000000    -3.484000000
C    -3.215000000    -1.837000000    -2.563000000
H    -3.970000000    -1.561000000    -1.832000000
C    -2.434000000    -2.985000000    -2.310000000
O    -2.836000000    -3.803000000    -1.253000000
C    -1.906000000    -3.757000000    -0.088000000
C    -2.675000000    -3.503000000     1.203000000
C    -2.222000000    -4.093000000     2.429000000
H    -1.237000000    -4.546000000     2.355000000
C    -3.892000000    -2.787000000     1.254000000
H    -4.174000000    -2.236000000     0.360000000
O    -1.065000000    -4.944000000    -0.005000000
H    -1.246000000    -2.891000000    -0.243000000
C    -1.369000000    -3.356000000    -3.196000000
C    -0.591000000    -4.637000000    -2.904000000
H    -0.137000000    -4.995000000    -3.831000000
H    -1.294000000    -5.404000000    -2.573000000
C     0.446000000    -4.405000000    -1.862000000
C     1.762000000    -4.099000000    -2.228000000
H     1.869000000    -3.741000000    -3.249000000
C     0.225000000    -4.768000000    -0.519000000
C     1.245000000    -4.621000000     0.418000000
H     1.071000000    -4.769000000     1.481000000
C     2.555000000    -4.182000000     0.001000000
O     3.346000000    -3.868000000     1.049000000
C     3.483000000    -2.508000000     1.355000000
C     3.482000000    -2.305000000     2.816000000
C     2.968000000    -3.232000000     3.737000000
H     2.822000000    -4.240000000     3.360000000
C     3.746000000    -1.039000000     3.363000000
H     4.031000000    -0.234000000     2.690000000
O     4.699000000    -2.007000000     0.670000000
H     2.582000000    -2.064000000     0.907000000
C     2.748000000    -3.921000000    -1.333000000
C     4.120000000    -3.393000000    -1.863000000
H     4.241000000    -3.602000000    -2.928000000
H     5.032000000    -3.838000000    -1.459000000
C     4.155000000    -1.896000000    -1.665000000
C     4.478000000    -1.279000000    -0.449000000
C     4.503000000     0.113000000    -0.461000000
H     4.726000000     0.549000000     0.509000000
C     4.191000000     0.852000000    -1.531000000
O     3.923000000     2.180000000    -1.257000000
C     2.522000000     2.707000000    -1.382000000
H     1.855000000     1.842000000    -1.247000000
C     2.367000000     3.901000000    -0.379000000
C     1.659000000     5.081000000    -0.739000000
H     1.095000000     5.176000000    -1.663000000
C     2.936000000     3.739000000     0.887000000
H     3.458000000     2.809000000     1.100000000
C     2.880000000     4.816000000     1.735000000
O     3.284000000     4.707000000     3.046000000
C     2.222000000     6.031000000     1.417000000
H     2.171000000     6.841000000     2.139000000
C     1.585000000     6.117000000     0.204000000
O     0.674000000     7.186000000    -0.025000000
C    -0.406000000     7.231000000    -0.929000000
C    -1.538000000     6.411000000    -0.766000000
H    -1.708000000     5.590000000    -0.074000000
C    -0.301000000     8.167000000    -2.016000000
H     0.603000000     8.767000000    -2.085000000
C    -1.326000000     8.208000000    -3.029000000
H    -1.178000000     8.869000000    -3.879000000
C    -2.475000000     7.449000000    -2.787000000
H    -3.281000000     7.464000000    -3.516000000
C    -2.572000000     6.607000000    -1.661000000
O    -3.796000000     5.972000000    -1.461000000
C    -4.070000000     4.635000000    -1.414000000
C    -5.178000000     4.115000000    -0.678000000
H    -5.794000000     4.740000000    -0.036000000
C    -5.450000000     2.781000000    -0.748000000
O    -6.487000000     2.292000000     0.079000000
C    -6.762000000     0.987000000     0.232000000
C    -6.081000000     0.323000000     1.231000000
H    -5.282000000     0.832000000     1.763000000
C    -7.718000000     0.294000000    -0.556000000
H    -8.236000000     0.859000000    -1.327000000
C    -7.924000000    -1.111000000    -0.390000000
H    -8.620000000    -1.706000000    -0.977000000
C    -7.331000000    -1.675000000     0.704000000
H    -7.428000000    -2.743000000     0.880000000
C    -6.352000000    -1.001000000     1.469000000
O    -5.654000000    -1.696000000     2.483000000
C    -4.559000000    -2.573000000     2.428000000
C    -4.145000000    -3.154000000     3.674000000
H    -4.668000000    -2.917000000     4.597000000
C    -2.944000000    -3.894000000     3.680000000
O    -2.388000000    -4.341000000     4.919000000
C    -1.154000000    -4.920000000     5.019000000
C    -0.084000000    -4.067000000     5.379000000
H    -0.219000000    -2.997000000     5.514000000
C    -0.901000000    -6.299000000     4.812000000
H    -1.764000000    -6.903000000     4.544000000
C     0.360000000    -6.807000000     5.007000000
H     0.597000000    -7.868000000     4.983000000
C     1.434000000    -6.022000000     5.432000000
H     2.415000000    -6.427000000     5.668000000
C     1.197000000    -4.621000000     5.595000000
O     2.214000000    -3.764000000     5.933000000
C     2.743000000    -2.924000000     5.054000000
C     3.184000000    -1.716000000     5.569000000
H     3.159000000    -1.563000000     6.645000000
C     3.605000000    -0.728000000     4.710000000
O     3.951000000     0.484000000     5.262000000
C     4.392000000     1.574000000     4.565000000
C     5.775000000     1.654000000     4.299000000
H     6.389000000     0.789000000     4.536000000
C     6.228000000     2.760000000     3.558000000
H     7.296000000     2.908000000     3.424000000
C     5.434000000     3.909000000     3.225000000
H     5.701000000     4.869000000     2.791000000
C     4.091000000     3.725000000     3.550000000
C     3.532000000     2.597000000     4.208000000
H     2.464000000     2.559000000     4.408000000
C    -0.828000000     1.500000000     0.672000000
H    -1.371000000     2.348000000     0.262000000
C    -0.088000000     0.645000000    -0.178000000
H     0.070000000     0.949000000    -1.209000000
C     0.133000000    -0.718000000     0.154000000
H     0.529000000    -1.423000000    -0.546000000
C    -0.194000000    -1.133000000     1.466000000
H    -0.073000000    -2.182000000     1.727000000
C    -0.834000000    -0.248000000     2.333000000
H    -0.942000000    -0.706000000     3.313000000
C    -1.115000000     1.084000000     2.027000000
C    -1.812000000     2.016000000     2.911000000
O    -1.998000000     1.805000000     4.081000000
O    -2.405000000     2.941000000     2.423000000
O    -2.510000000     7.166000000     4.994000000
H    -3.165000000     6.827000000     5.604000000
H    -2.519000000     6.547000000     4.264000000
O    -6.077000000     0.501000000     5.881000000
H    -6.511000000    -0.327000000     5.679000000
H    -6.342000000     1.090000000     5.175000000
O    -2.348000000     4.772000000     7.144000000
H    -2.271000000     4.519000000     6.224000000
H    -1.456000000     4.713000000     7.484000000
O    -3.444000000     1.385000000     6.340000000
H    -2.943000000     1.601000000     5.554000000
H    -4.337000000     1.245000000     6.024000000
O    -4.249000000     6.089000000     8.599000000
H    -3.766000000     6.912000000     8.682000000
H    -3.631000000     5.491000000     8.179000000
O    -7.900000000     4.411000000     1.971000000
H    -7.993000000     5.281000000     1.582000000
H    -8.156000000     3.808000000     1.273000000
O    -0.903000000     0.046000000     5.752000000
H    -1.060000000     0.719000000     5.089000000
H    -1.625000000     0.148000000     6.372000000
O    -8.960000000     0.093000000     3.641000000
H    -9.258000000     0.397000000     2.783000000
H    -8.165000000     0.599000000     3.811000000
O    -3.248000000     2.407000000     9.095000000
H    -3.224000000     2.431000000     8.139000000
H    -2.495000000     2.932000000     9.366000000
O    -6.985000000     2.442000000     3.879000000
H    -7.281000000     3.016000000     3.173000000
H    -6.176000000     2.847000000     4.194000000
O     0.861000000     4.663000000     7.514000000
H     0.553000000     4.420000000     6.641000000
H     1.245000000     3.860000000     7.865000000
O    -4.422000000     7.187000000     1.645000000
H    -5.316000000     7.399000000     1.913000000
H    -4.479000000     7.067000000     0.697000000
O     1.048000000    -0.015000000     7.857000000
H     0.885000000    -0.063000000     6.915000000
H     0.849000000    -0.893000000     8.180000000
O    -0.764000000     4.125000000     4.768000000
H    -1.249000000     3.304000000     4.686000000
H    -0.814000000     4.521000000     3.898000000
O     0.203000000     7.137000000     5.685000000
H    -0.622000000     7.254000000     5.214000000
H     0.252000000     6.195000000     5.850000000
O    -2.902000000    -1.659000000     7.478000000
H    -3.258000000    -1.521000000     6.601000000
H    -3.664000000    -1.613000000     8.056000000
O    -2.337000000     5.494000000     2.856000000
H    -2.270000000     4.562000000     2.646000000
H    -2.949000000     5.842000000     2.208000000
O    -4.396000000     3.912000000     4.186000000
H    -4.467000000     4.784000000     3.798000000
H    -3.852000000     3.420000000     3.571000000
O     0.882000000     2.284000000     9.271000000
H     0.922000000     1.497000000     8.728000000
H     1.791000000     2.578000000     9.333000000
