215
-1456.26856
C    -4.902000000     1.124000000    -1.811000000
H    -4.956000000     0.054000000    -1.996000000
C    -3.801000000     1.732000000    -2.350000000
C    -3.591000000     3.103000000    -2.180000000
H    -2.772000000     3.524000000    -2.757000000
C    -2.833000000     0.880000000    -3.116000000
O    -3.450000000    -0.281000000    -3.659000000
H    -2.039000000     0.607000000    -2.405000000
O    -2.177000000     1.607000000    -4.173000000
C    -0.816000000     1.443000000    -4.359000000
C     0.092000000     2.364000000    -3.803000000
H    -0.332000000     3.185000000    -3.230000000
C     1.473000000     2.154000000    -3.701000000
O     2.209000000     3.027000000    -2.948000000
C     1.999000000     0.937000000    -4.156000000
C     3.445000000     0.612000000    -4.077000000
H     3.607000000    -0.098000000    -4.890000000
C     3.846000000    -0.005000000    -2.787000000
C     4.045000000    -1.377000000    -2.708000000
H     3.796000000    -2.037000000    -3.534000000
H     4.020000000     1.509000000    -4.318000000
C     1.138000000     0.009000000    -4.849000000
H     1.556000000    -0.940000000    -5.174000000
C    -0.276000000     0.223000000    -4.860000000
C    -1.165000000    -0.797000000    -5.462000000
H    -0.808000000    -1.293000000    -6.367000000
H    -2.018000000    -0.265000000    -5.888000000
C    -1.559000000    -1.727000000    -4.358000000
C    -0.872000000    -2.897000000    -4.087000000
H    -0.099000000    -3.109000000    -4.821000000
C    -2.645000000    -1.409000000    -3.555000000
C    -3.040000000    -2.269000000    -2.516000000
H    -3.787000000    -1.991000000    -1.777000000
C    -2.243000000    -3.368000000    -2.205000000
O    -2.562000000    -3.995000000    -1.026000000
C    -1.827000000    -3.554000000     0.125000000
C    -2.753000000    -3.393000000     1.337000000
C    -2.234000000    -3.260000000     2.636000000
H    -1.159000000    -3.262000000     2.801000000
C    -4.149000000    -3.329000000     1.113000000
H    -4.623000000    -3.487000000     0.148000000
O    -0.892000000    -4.474000000     0.492000000
H    -1.338000000    -2.582000000    -0.039000000
C    -1.210000000    -3.745000000    -3.029000000
C    -0.320000000    -4.903000000    -2.511000000
H     0.286000000    -5.357000000    -3.298000000
H    -0.988000000    -5.706000000    -2.193000000
C     0.706000000    -4.478000000    -1.424000000
C     2.043000000    -4.208000000    -1.881000000
H     2.198000000    -4.315000000    -2.952000000
C     0.385000000    -4.381000000    -0.126000000
C     1.288000000    -4.011000000     0.796000000
H     1.063000000    -3.940000000     1.857000000
C     2.614000000    -3.851000000     0.412000000
O     3.418000000    -3.357000000     1.422000000
C     3.650000000    -1.999000000     1.434000000
C     3.563000000    -1.458000000     2.875000000
C     3.023000000    -2.240000000     3.925000000
H     2.586000000    -3.198000000     3.655000000
C     3.977000000    -0.180000000     3.240000000
H     4.400000000     0.458000000     2.468000000
O     4.956000000    -1.651000000     0.862000000
H     2.824000000    -1.514000000     0.893000000
C     2.980000000    -3.804000000    -0.934000000
C     4.375000000    -3.466000000    -1.371000000
H     4.720000000    -3.976000000    -2.273000000
H     5.068000000    -3.732000000    -0.571000000
C     4.412000000    -1.963000000    -1.432000000
C     4.840000000    -1.126000000    -0.389000000
C     4.760000000     0.256000000    -0.481000000
H     4.922000000     0.820000000     0.434000000
C     4.178000000     0.825000000    -1.651000000
O     4.067000000     2.173000000    -1.677000000
C     2.678000000     2.776000000    -1.604000000
H     2.039000000     1.983000000    -1.189000000
C     2.539000000     4.006000000    -0.688000000
C     1.458000000     4.841000000    -0.824000000
H     0.692000000     4.596000000    -1.556000000
C     3.514000000     4.102000000     0.336000000
H     4.432000000     3.521000000     0.325000000
C     3.311000000     5.161000000     1.238000000
O     4.262000000     5.459000000     2.201000000
C     2.214000000     5.968000000     1.133000000
H     2.114000000     6.836000000     1.780000000
C     1.224000000     5.813000000     0.141000000
O     0.128000000     6.669000000     0.075000000
C    -0.846000000     6.610000000    -0.893000000
C    -2.071000000     6.009000000    -0.549000000
H    -2.233000000     5.587000000     0.439000000
C    -0.770000000     7.298000000    -2.100000000
H     0.162000000     7.802000000    -2.342000000
C    -1.809000000     7.253000000    -3.011000000
H    -1.623000000     7.660000000    -4.002000000
C    -3.006000000     6.648000000    -2.687000000
H    -3.840000000     6.818000000    -3.362000000
C    -3.145000000     5.914000000    -1.484000000
O    -4.330000000     5.260000000    -1.223000000
C    -4.433000000     3.870000000    -1.300000000
C    -5.541000000     3.266000000    -0.677000000
H    -6.216000000     3.821000000    -0.030000000
C    -5.752000000     1.812000000    -0.891000000
O    -6.815000000     1.253000000    -0.253000000
C    -7.048000000    -0.089000000    -0.150000000
C    -6.616000000    -0.814000000     0.959000000
H    -6.079000000    -0.318000000     1.764000000
C    -7.702000000    -0.751000000    -1.179000000
H    -8.046000000    -0.115000000    -1.990000000
C    -7.948000000    -2.114000000    -1.176000000
H    -8.344000000    -2.637000000    -2.043000000
C    -7.438000000    -2.825000000    -0.092000000
H    -7.560000000    -3.904000000    -0.068000000
C    -6.862000000    -2.178000000     0.986000000
O    -6.359000000    -2.928000000     2.035000000
C    -4.989000000    -3.069000000     2.220000000
C    -4.458000000    -2.926000000     3.519000000
H    -5.156000000    -2.777000000     4.339000000
C    -3.018000000    -2.916000000     3.708000000
O    -2.507000000    -2.954000000     4.972000000
C    -1.342000000    -3.526000000     5.330000000
C    -0.217000000    -2.644000000     5.509000000
H    -0.346000000    -1.576000000     5.349000000
C    -1.170000000    -4.900000000     5.429000000
H    -2.049000000    -5.538000000     5.387000000
C     0.109000000    -5.423000000     5.918000000
H     0.268000000    -6.494000000     6.012000000
C     1.165000000    -4.524000000     6.048000000
H     2.120000000    -4.899000000     6.408000000
C     1.032000000    -3.175000000     5.867000000
O     2.079000000    -2.384000000     6.181000000
C     2.793000000    -1.687000000     5.204000000
C     3.157000000    -0.432000000     5.490000000
H     3.019000000     0.000000000     6.478000000
C     3.729000000     0.319000000     4.535000000
O     4.129000000     1.594000000     4.896000000
C     4.999000000     2.413000000     4.187000000
C     6.340000000     2.511000000     4.348000000
H     6.941000000     1.858000000     4.976000000
C     7.004000000     3.600000000     3.771000000
H     8.083000000     3.610000000     3.895000000
C     6.349000000     4.587000000     3.034000000
H     6.826000000     5.461000000     2.596000000
C     4.996000000     4.427000000     2.806000000
C     4.273000000     3.388000000     3.380000000
H     3.190000000     3.306000000     3.331000000
C    -0.822000000     1.747000000     0.623000000
H    -1.207000000     2.681000000     0.223000000
C    -0.256000000     0.746000000    -0.214000000
H    -0.256000000     0.806000000    -1.299000000
C     0.280000000    -0.386000000     0.416000000
H     0.843000000    -1.085000000    -0.137000000
C     0.263000000    -0.549000000     1.787000000
H     0.788000000    -1.334000000     2.325000000
C    -0.223000000     0.471000000     2.601000000
H    -0.042000000     0.344000000     3.665000000
C    -0.768000000     1.637000000     2.005000000
C    -1.283000000     2.773000000     2.964000000
O    -1.146000000     2.664000000     4.154000000
O    -1.706000000     3.811000000     2.489000000
O    -2.588000000     6.547000000     5.973000000
H    -1.952000000     6.269000000     6.631000000
H    -2.948000000     5.730000000     5.628000000
O    -4.838000000     0.016000000     4.561000000
H    -5.140000000     0.472000000     3.775000000
H    -5.642000000    -0.205000000     5.033000000
O    -3.169000000     4.172000000     4.875000000
H    -3.177000000     4.487000000     3.971000000
H    -2.428000000     3.567000000     4.911000000
O    -2.329000000     0.654000000     5.713000000
H    -1.836000000     1.170000000     5.076000000
H    -3.238000000     0.715000000     5.420000000
O    -6.552000000     1.694000000     3.087000000
H    -6.780000000     2.623000000     3.132000000
H    -7.394000000     1.242000000     3.046000000
O    -0.397000000     1.460000000     7.476000000
H    -0.983000000     1.087000000     6.817000000
H    -0.692000000     2.365000000     7.573000000
O     2.256000000     2.632000000     8.277000000
H     1.483000000     2.290000000     7.828000000
H     1.907000000     3.068000000     9.055000000
O    -6.553000000     4.299000000     4.238000000
H    -5.824000000     4.375000000     3.623000000
H    -7.225000000     4.883000000     3.886000000
O     0.550000000     8.794000000     2.071000000
H     0.285000000     7.988000000     2.514000000
H     0.106000000     8.759000000     1.224000000
O     0.499000000    -0.693000000     8.538000000
H     1.416000000    -0.809000000     8.292000000
H     0.212000000     0.073000000     8.042000000
O    -4.589000000     1.375000000     8.413000000
H    -3.977000000     0.699000000     8.122000000
H    -5.455000000     1.003000000     8.248000000
O    -4.160000000     3.990000000     7.412000000
H    -4.132000000     4.040000000     6.457000000
H    -4.554000000     3.137000000     7.596000000
O     0.772000000     4.763000000     7.392000000
H     1.423000000     4.164000000     7.757000000
H     0.818000000     4.618000000     6.446000000
O    -4.879000000     6.425000000     3.255000000
H    -4.935000000     7.092000000     2.572000000
H    -4.718000000     5.609000000     2.781000000
O     0.674000000     4.523000000     4.658000000
H     0.099000000     3.772000000     4.511000000
H     0.523000000     5.092000000     3.903000000
O     3.211000000     5.971000000     5.279000000
H     3.735000000     5.841000000     4.488000000
H     2.504000000     5.330000000     5.207000000
O    -3.161000000    -0.877000000     7.947000000
H    -2.758000000    -0.413000000     7.212000000
H    -3.340000000    -1.753000000     7.607000000
O    -0.829000000     6.407000000     3.233000000
H    -0.979000000     5.513000000     2.924000000
H    -1.576000000     6.592000000     3.802000000
O    -4.400000000     3.802000000     2.118000000
H    -3.459000000     3.689000000     2.250000000
H    -4.762000000     2.920000000     2.211000000
