215
-1441.73029
C    -4.916000000     1.189000000    -1.812000000
H    -4.963000000     0.107000000    -1.714000000
C    -3.916000000     1.950000000    -2.528000000
C    -3.885000000     3.364000000    -2.464000000
H    -2.989000000     3.883000000    -2.797000000
C    -2.889000000     1.078000000    -3.187000000
O    -3.490000000    -0.157000000    -3.660000000
H    -2.115000000     0.845000000    -2.441000000
O    -2.126000000     1.821000000    -4.156000000
C    -0.747000000     1.599000000    -4.143000000
C     0.033000000     2.559000000    -3.513000000
H    -0.536000000     3.297000000    -2.953000000
C     1.420000000     2.516000000    -3.484000000
O     2.016000000     3.404000000    -2.671000000
C     2.054000000     1.455000000    -4.176000000
C     3.570000000     1.336000000    -4.120000000
H     3.778000000     0.666000000    -4.957000000
C     3.974000000     0.596000000    -2.789000000
C     3.914000000    -0.790000000    -2.847000000
H     3.657000000    -1.265000000    -3.790000000
H     4.118000000     2.272000000    -4.245000000
C     1.243000000     0.468000000    -4.700000000
H     1.695000000    -0.467000000    -5.023000000
C    -0.156000000     0.572000000    -4.831000000
C    -1.023000000    -0.520000000    -5.385000000
H    -0.375000000    -0.948000000    -6.153000000
H    -1.802000000    -0.090000000    -6.018000000
C    -1.547000000    -1.484000000    -4.365000000
C    -0.819000000    -2.669000000    -4.158000000
H     0.084000000    -2.807000000    -4.747000000
C    -2.712000000    -1.286000000    -3.615000000
C    -2.996000000    -2.198000000    -2.576000000
H    -3.887000000    -2.059000000    -1.969000000
C    -2.282000000    -3.406000000    -2.382000000
O    -2.586000000    -4.160000000    -1.250000000
C    -1.746000000    -3.845000000    -0.108000000
C    -2.546000000    -3.640000000     1.179000000
C    -1.937000000    -3.701000000     2.455000000
H    -0.883000000    -3.929000000     2.589000000
C    -3.910000000    -3.463000000     1.120000000
H    -4.438000000    -3.546000000     0.174000000
O    -0.730000000    -4.841000000     0.007000000
H    -1.160000000    -2.943000000    -0.338000000
C    -1.205000000    -3.616000000    -3.188000000
C    -0.285000000    -4.810000000    -2.930000000
H     0.236000000    -5.188000000    -3.812000000
H    -0.887000000    -5.657000000    -2.596000000
C     0.739000000    -4.386000000    -1.860000000
C     1.974000000    -3.986000000    -2.300000000
H     2.254000000    -3.914000000    -3.347000000
C     0.454000000    -4.522000000    -0.467000000
C     1.426000000    -4.159000000     0.503000000
H     1.155000000    -4.227000000     1.554000000
C     2.690000000    -3.708000000     0.063000000
O     3.543000000    -3.367000000     1.043000000
C     3.651000000    -1.939000000     1.381000000
C     3.645000000    -1.492000000     2.868000000
C     2.975000000    -2.367000000     3.763000000
H     2.551000000    -3.293000000     3.383000000
C     4.191000000    -0.270000000     3.375000000
H     4.748000000     0.428000000     2.756000000
O     4.826000000    -1.436000000     0.624000000
H     2.771000000    -1.511000000     0.877000000
C     2.906000000    -3.600000000    -1.352000000
C     4.259000000    -3.028000000    -1.694000000
H     4.561000000    -3.312000000    -2.704000000
H     5.073000000    -3.321000000    -1.027000000
C     4.239000000    -1.481000000    -1.676000000
C     4.508000000    -0.809000000    -0.520000000
C     4.385000000     0.581000000    -0.422000000
H     4.428000000     1.170000000     0.490000000
C     4.174000000     1.300000000    -1.575000000
O     3.866000000     2.594000000    -1.431000000
C     2.493000000     2.927000000    -1.429000000
H     1.766000000     2.119000000    -1.264000000
C     2.297000000     3.944000000    -0.321000000
C     1.002000000     4.601000000    -0.190000000
H     0.123000000     4.351000000    -0.779000000
C     3.114000000     4.133000000     0.740000000
H     4.091000000     3.670000000     0.845000000
C     2.834000000     5.128000000     1.747000000
O     3.606000000     5.338000000     2.818000000
C     1.695000000     5.892000000     1.697000000
H     1.588000000     6.658000000     2.460000000
C     0.769000000     5.547000000     0.798000000
O    -0.444000000     6.247000000     0.809000000
C    -1.200000000     6.388000000    -0.349000000
C    -2.531000000     5.915000000    -0.377000000
H    -2.899000000     5.456000000     0.536000000
C    -0.762000000     7.073000000    -1.496000000
H     0.174000000     7.625000000    -1.474000000
C    -1.631000000     7.283000000    -2.572000000
H    -1.327000000     7.783000000    -3.488000000
C    -2.886000000     6.635000000    -2.617000000
H    -3.458000000     6.601000000    -3.540000000
C    -3.372000000     6.035000000    -1.459000000
O    -4.669000000     5.415000000    -1.389000000
C    -4.811000000     4.019000000    -1.579000000
C    -5.732000000     3.275000000    -0.888000000
H    -6.411000000     3.733000000    -0.173000000
C    -5.701000000     1.872000000    -0.907000000
O    -6.633000000     1.184000000    -0.150000000
C    -6.868000000    -0.192000000    -0.121000000
C    -6.466000000    -0.934000000     0.980000000
H    -6.087000000    -0.371000000     1.829000000
C    -7.424000000    -0.835000000    -1.195000000
H    -7.717000000    -0.289000000    -2.088000000
C    -7.587000000    -2.259000000    -1.209000000
H    -7.956000000    -2.776000000    -2.091000000
C    -7.220000000    -2.950000000    -0.037000000
H    -7.360000000    -4.026000000     0.029000000
C    -6.579000000    -2.284000000     1.031000000
O    -6.094000000    -3.021000000     2.083000000
C    -4.699000000    -3.215000000     2.179000000
C    -4.107000000    -3.304000000     3.433000000
H    -4.668000000    -3.175000000     4.356000000
C    -2.751000000    -3.464000000     3.584000000
O    -2.240000000    -3.667000000     4.856000000
C    -0.994000000    -4.139000000     5.092000000
C     0.013000000    -3.189000000     5.335000000
H    -0.162000000    -2.117000000     5.376000000
C    -0.814000000    -5.537000000     5.205000000
H    -1.638000000    -6.201000000     4.959000000
C     0.498000000    -6.002000000     5.466000000
H     0.754000000    -7.058000000     5.504000000
C     1.453000000    -5.084000000     5.645000000
H     2.493000000    -5.354000000     5.809000000
C     1.246000000    -3.706000000     5.642000000
O     2.264000000    -2.908000000     6.013000000
C     2.849000000    -2.054000000     5.131000000
C     3.344000000    -0.843000000     5.576000000
H     3.207000000    -0.638000000     6.635000000
C     3.975000000     0.065000000     4.734000000
O     4.441000000     1.276000000     5.226000000
C     4.921000000     2.451000000     4.577000000
C     6.271000000     2.604000000     4.269000000
H     7.016000000     1.873000000     4.574000000
C     6.787000000     3.711000000     3.528000000
H     7.839000000     3.849000000     3.293000000
C     5.885000000     4.727000000     3.198000000
H     6.253000000     5.561000000     2.606000000
C     4.482000000     4.525000000     3.464000000
C     4.047000000     3.423000000     4.167000000
H     2.982000000     3.211000000     4.178000000
C    -1.294000000     1.441000000     0.464000000
H    -1.735000000     2.370000000     0.112000000
C    -0.474000000     0.698000000    -0.363000000
H    -0.341000000     1.009000000    -1.396000000
C     0.095000000    -0.499000000     0.132000000
H     0.715000000    -1.057000000    -0.479000000
C    -0.374000000    -1.041000000     1.365000000
H    -0.008000000    -2.042000000     1.576000000
C    -1.270000000    -0.338000000     2.174000000
H    -1.590000000    -0.819000000     3.095000000
C    -1.747000000     0.927000000     1.736000000
C    -2.610000000     1.728000000     2.709000000
O    -2.700000000     1.385000000     3.881000000
O    -3.144000000     2.790000000     2.276000000
O    -5.219000000     0.830000000     7.707000000
H    -4.804000000     1.371000000     7.035000000
H    -6.141000000     1.086000000     7.684000000
O    -4.240000000     2.722000000     5.456000000
H    -4.970000000     2.976000000     4.891000000
H    -3.664000000     2.212000000     4.887000000
O     0.465000000    -0.033000000     7.492000000
H     0.173000000    -0.079000000     6.581000000
H     0.601000000    -0.946000000     7.746000000
O    -6.532000000     2.821000000     3.838000000
H    -7.262000000     2.957000000     3.234000000
H    -6.780000000     2.047000000     4.343000000
O     0.645000000     1.347000000     4.961000000
H    -0.151000000     1.581000000     4.485000000
H     0.872000000     2.138000000     5.450000000
O    -0.634000000     3.915000000     5.755000000
H    -0.008000000     4.526000000     6.144000000
H    -0.854000000     4.304000000     4.909000000
O    -7.746000000     1.753000000     7.123000000
H    -7.608000000     1.244000000     6.324000000
H    -8.307000000     2.479000000     6.850000000
O    -2.557000000     3.128000000     7.565000000
H    -1.783000000     3.360000000     7.052000000
H    -3.245000000     2.992000000     6.912000000
O    -5.716000000     6.605000000     6.696000000
H    -5.625000000     6.017000000     7.446000000
H    -4.892000000     6.513000000     6.217000000
O    -3.201000000    -3.097000000     7.557000000
H    -2.471000000    -2.495000000     7.414000000
H    -3.136000000    -3.728000000     6.840000000
O    -4.626000000     7.524000000     2.072000000
H    -4.743000000     6.617000000     2.358000000
H    -3.902000000     7.852000000     2.606000000
O    -3.542000000     5.954000000     5.110000000
H    -3.701000000     5.058000000     5.407000000
H    -2.911000000     5.862000000     4.397000000
O    -7.814000000     0.351000000     4.688000000
H    -7.738000000    -0.561000000     4.970000000
H    -8.608000000     0.371000000     4.154000000
O    -8.402000000     3.612000000     1.851000000
H    -9.074000000     3.445000000     1.190000000
H    -7.987000000     4.428000000     1.570000000
O     1.943000000     1.950000000     2.202000000
H     1.749000000     1.624000000     3.081000000
H     1.246000000     1.591000000     1.653000000
O    -7.153000000     6.148000000     1.479000000
H    -7.689000000     5.923000000     0.719000000
H    -6.472000000     5.475000000     1.499000000
O    -2.017000000    -0.213000000     5.954000000
H    -2.421000000     0.192000000     5.187000000
H    -2.065000000     0.460000000     6.633000000
O    -1.678000000     4.861000000     3.164000000
H    -2.232000000     4.113000000     2.937000000
H    -1.233000000     5.086000000     2.347000000
O    -4.960000000     4.516000000     2.152000000
H    -4.291000000     3.832000000     2.122000000
H    -5.593000000     4.203000000     2.798000000
