215
-1423.43061
C    -4.993000000     1.408000000    -1.750000000
H    -4.920000000     0.352000000    -1.502000000
C    -4.048000000     1.970000000    -2.596000000
C    -4.006000000     3.348000000    -2.821000000
H    -3.195000000     3.812000000    -3.376000000
C    -2.981000000     1.004000000    -3.107000000
O    -3.499000000    -0.305000000    -3.514000000
H    -2.258000000     0.829000000    -2.297000000
O    -2.275000000     1.659000000    -4.225000000
C    -0.936000000     1.431000000    -4.315000000
C    -0.071000000     2.456000000    -3.859000000
H    -0.548000000     3.403000000    -3.619000000
C     1.327000000     2.270000000    -3.837000000
O     2.105000000     3.222000000    -3.209000000
C     1.852000000     1.033000000    -4.260000000
C     3.341000000     0.754000000    -4.236000000
H     3.577000000     0.089000000    -5.069000000
C     3.848000000     0.117000000    -2.870000000
C     3.891000000    -1.251000000    -2.709000000
H     3.747000000    -1.939000000    -3.538000000
H     3.942000000     1.635000000    -4.470000000
C     0.924000000    -0.007000000    -4.631000000
H     1.401000000    -0.935000000    -4.935000000
C    -0.396000000     0.195000000    -4.713000000
C    -1.285000000    -0.864000000    -5.302000000
H    -0.798000000    -1.399000000    -6.121000000
H    -2.129000000    -0.350000000    -5.765000000
C    -1.733000000    -1.834000000    -4.212000000
C    -1.011000000    -3.072000000    -4.022000000
H    -0.158000000    -3.345000000    -4.638000000
C    -2.815000000    -1.498000000    -3.383000000
C    -3.130000000    -2.298000000    -2.304000000
H    -3.981000000    -2.042000000    -1.678000000
C    -2.295000000    -3.351000000    -2.046000000
O    -2.593000000    -4.033000000    -0.854000000
C    -1.702000000    -3.687000000     0.313000000
C    -2.547000000    -3.417000000     1.529000000
C    -1.999000000    -3.686000000     2.822000000
H    -0.935000000    -3.867000000     2.946000000
C    -3.841000000    -2.954000000     1.427000000
H    -4.257000000    -2.633000000     0.476000000
O    -0.756000000    -4.724000000     0.462000000
H    -1.109000000    -2.779000000     0.126000000
C    -1.276000000    -3.760000000    -2.847000000
C    -0.301000000    -4.910000000    -2.511000000
H     0.122000000    -5.216000000    -3.470000000
H    -1.029000000    -5.632000000    -2.132000000
C     0.706000000    -4.551000000    -1.424000000
C     1.966000000    -4.194000000    -1.801000000
H     2.205000000    -4.102000000    -2.857000000
C     0.476000000    -4.676000000    -0.104000000
C     1.449000000    -4.351000000     0.882000000
H     1.129000000    -4.525000000     1.907000000
C     2.747000000    -3.983000000     0.494000000
O     3.632000000    -3.494000000     1.433000000
C     3.777000000    -2.084000000     1.472000000
C     3.775000000    -1.531000000     2.893000000
C     2.983000000    -2.099000000     3.854000000
H     2.351000000    -2.936000000     3.572000000
C     4.526000000    -0.425000000     3.283000000
H     5.051000000     0.149000000     2.524000000
O     4.929000000    -1.569000000     0.845000000
H     2.874000000    -1.652000000     1.017000000
C     2.996000000    -3.868000000    -0.879000000
C     4.351000000    -3.356000000    -1.426000000
H     4.721000000    -3.702000000    -2.393000000
H     5.161000000    -3.659000000    -0.759000000
C     4.312000000    -1.846000000    -1.516000000
C     4.685000000    -0.994000000    -0.400000000
C     4.564000000     0.399000000    -0.578000000
H     4.820000000     1.080000000     0.229000000
C     4.108000000     0.940000000    -1.782000000
O     3.857000000     2.303000000    -1.909000000
C     2.469000000     2.773000000    -1.933000000
H     1.876000000     1.880000000    -1.686000000
C     2.166000000     3.869000000    -0.787000000
C     0.973000000     4.626000000    -0.798000000
H     0.270000000     4.540000000    -1.623000000
C     2.955000000     3.969000000     0.342000000
H     3.729000000     3.235000000     0.551000000
C     2.639000000     4.760000000     1.424000000
O     3.348000000     4.701000000     2.639000000
C     1.461000000     5.515000000     1.382000000
H     1.190000000     6.088000000     2.264000000
C     0.585000000     5.372000000     0.294000000
O    -0.672000000     5.880000000     0.285000000
C    -1.384000000     6.305000000    -0.788000000
C    -2.690000000     5.839000000    -0.845000000
H    -3.037000000     5.327000000     0.049000000
C    -0.887000000     7.097000000    -1.836000000
H     0.009000000     7.698000000    -1.701000000
C    -1.654000000     7.253000000    -2.966000000
H    -1.249000000     7.905000000    -3.736000000
C    -2.974000000     6.830000000    -2.975000000
H    -3.529000000     6.941000000    -3.903000000
C    -3.455000000     6.079000000    -1.941000000
O    -4.706000000     5.527000000    -1.940000000
C    -4.845000000     4.108000000    -2.001000000
C    -5.874000000     3.504000000    -1.199000000
H    -6.482000000     4.045000000    -0.479000000
C    -5.967000000     2.127000000    -1.066000000
O    -7.004000000     1.578000000    -0.372000000
C    -6.979000000     0.242000000    -0.060000000
C    -6.323000000    -0.209000000     1.086000000
H    -5.818000000     0.486000000     1.751000000
C    -7.593000000    -0.607000000    -0.962000000
H    -8.090000000    -0.179000000    -1.828000000
C    -7.633000000    -2.010000000    -0.655000000
H    -8.049000000    -2.658000000    -1.423000000
C    -7.022000000    -2.436000000     0.534000000
H    -6.943000000    -3.507000000     0.701000000
C    -6.297000000    -1.593000000     1.383000000
O    -5.772000000    -2.024000000     2.503000000
C    -4.536000000    -2.592000000     2.590000000
C    -3.934000000    -2.700000000     3.795000000
H    -4.424000000    -2.273000000     4.666000000
C    -2.686000000    -3.263000000     3.933000000
O    -2.200000000    -3.334000000     5.203000000
C    -0.879000000    -3.671000000     5.523000000
C     0.030000000    -2.599000000     5.752000000
H    -0.149000000    -1.566000000     5.468000000
C    -0.628000000    -4.969000000     5.831000000
H    -1.321000000    -5.796000000     5.696000000
C     0.572000000    -5.297000000     6.341000000
H     0.743000000    -6.304000000     6.713000000
C     1.571000000    -4.390000000     6.470000000
H     2.553000000    -4.629000000     6.871000000
C     1.302000000    -3.063000000     6.150000000
O     2.294000000    -2.158000000     6.236000000
C     2.939000000    -1.583000000     5.166000000
C     3.834000000    -0.562000000     5.553000000
H     3.982000000    -0.207000000     6.569000000
C     4.683000000    -0.032000000     4.564000000
O     5.494000000     1.150000000     4.797000000
C     5.561000000     2.160000000     3.923000000
C     6.665000000     2.381000000     3.121000000
H     7.592000000     1.879000000     3.387000000
C     6.723000000     3.497000000     2.207000000
H     7.585000000     3.721000000     1.585000000
C     5.546000000     4.216000000     2.023000000
H     5.423000000     4.989000000     1.268000000
C     4.475000000     3.955000000     2.817000000
C     4.454000000     2.933000000     3.768000000
H     3.635000000     2.730000000     4.454000000
C    -1.852000000     1.428000000     1.240000000
H    -2.476000000     2.293000000     1.032000000
C    -0.973000000     1.050000000     0.211000000
H    -0.957000000     1.641000000    -0.702000000
C    -0.183000000    -0.081000000     0.374000000
H     0.447000000    -0.463000000    -0.424000000
C    -0.261000000    -0.804000000     1.542000000
H     0.296000000    -1.721000000     1.720000000
C    -1.122000000    -0.360000000     2.526000000
H    -1.169000000    -0.895000000     3.471000000
C    -1.985000000     0.744000000     2.398000000
C    -3.042000000     1.153000000     3.459000000
O    -3.105000000     0.606000000     4.518000000
O    -3.539000000     2.252000000     3.359000000
O    -1.264000000     4.847000000     7.837000000
H    -2.179000000     4.735000000     7.582000000
H    -0.922000000     5.497000000     7.223000000
O    -3.903000000    -3.072000000     7.629000000
H    -3.986000000    -3.961000000     7.284000000
H    -3.131000000    -2.715000000     7.189000000
O    -4.893000000     3.178000000     5.316000000
H    -4.335000000     2.958000000     4.570000000
H    -4.413000000     3.863000000     5.781000000
O    -0.807000000     0.601000000     6.410000000
H    -1.081000000     0.206000000     7.238000000
H    -1.623000000     0.732000000     5.926000000
O     1.159000000     2.681000000     5.732000000
H     0.883000000     2.933000000     4.851000000
H     0.669000000     1.880000000     5.917000000
O    -6.336000000     5.160000000     4.240000000
H    -5.656000000     4.776000000     4.794000000
H    -6.299000000     4.652000000     3.429000000
O    -7.490000000     2.276000000     4.102000000
H    -6.748000000     2.585000000     4.621000000
H    -7.416000000     2.750000000     3.273000000
O    -3.548000000    -0.260000000     9.023000000
H    -3.954000000    -0.340000000     8.160000000
H    -3.711000000    -1.104000000     9.444000000
O    -6.648000000    -4.216000000     5.466000000
H    -6.373000000    -3.304000000     5.561000000
H    -5.936000000    -4.723000000     5.855000000
O    -3.865000000     5.409000000     6.305000000
H    -4.505000000     5.379000000     7.016000000
H    -3.719000000     6.343000000     6.155000000
O    -5.601000000     6.276000000     1.266000000
H    -5.720000000     5.355000000     1.497000000
H    -4.932000000     6.591000000     1.875000000
O    -3.812000000     7.167000000     3.419000000
H    -3.528000000     6.253000000     3.436000000
H    -3.448000000     7.545000000     4.220000000
O    -8.908000000    -0.236000000     4.793000000
H    -8.550000000     0.287000000     5.510000000
H    -9.481000000     0.366000000     4.319000000
O    -6.521000000    -1.523000000     5.524000000
H    -6.729000000    -1.320000000     4.612000000
H    -5.991000000    -0.783000000     5.819000000
O     0.173000000     3.099000000     3.343000000
H     0.675000000     3.504000000     2.636000000
H    -0.300000000     2.382000000     2.920000000
O    -0.850000000    -0.517000000     9.088000000
H    -0.700000000    -0.272000000    10.001000000
H    -1.768000000    -0.298000000     8.929000000
O    -4.728000000     0.313000000     6.428000000
H    -4.063000000     0.491000000     5.762000000
H    -5.092000000     1.173000000     6.638000000
O    -2.796000000     4.766000000     3.385000000
H    -3.045000000     3.844000000     3.458000000
H    -1.872000000     4.784000000     3.633000000
O    -5.444000000     3.372000000     2.131000000
H    -5.750000000     2.685000000     1.538000000
H    -4.785000000     2.942000000     2.676000000
