215
-1438.40945
C    -4.721000000     0.501000000    -1.875000000
H    -4.600000000    -0.501000000    -1.472000000
C    -3.647000000     0.966000000    -2.651000000
C    -3.689000000     2.323000000    -2.989000000
H    -2.866000000     2.752000000    -3.553000000
C    -2.518000000     0.079000000    -3.188000000
O    -2.951000000    -1.199000000    -3.555000000
H    -1.677000000     0.006000000    -2.483000000
O    -1.928000000     0.726000000    -4.317000000
C    -0.585000000     0.712000000    -4.319000000
C     0.097000000     1.881000000    -4.023000000
H    -0.511000000     2.771000000    -3.886000000
C     1.499000000     1.917000000    -3.916000000
O     2.077000000     3.058000000    -3.404000000
C     2.166000000     0.708000000    -4.153000000
C     3.673000000     0.730000000    -4.025000000
H     4.042000000    -0.058000000    -4.685000000
C     4.127000000     0.441000000    -2.617000000
C     4.423000000    -0.910000000    -2.300000000
H     4.325000000    -1.691000000    -3.050000000
H     3.910000000     1.749000000    -4.341000000
C     1.555000000    -0.439000000    -4.612000000
H     2.138000000    -1.338000000    -4.799000000
C     0.161000000    -0.419000000    -4.734000000
C    -0.549000000    -1.755000000    -5.213000000
H    -0.016000000    -2.333000000    -5.970000000
H    -1.400000000    -1.461000000    -5.831000000
C    -0.964000000    -2.582000000    -4.015000000
C    -0.143000000    -3.676000000    -3.606000000
H     0.739000000    -3.993000000    -4.157000000
C    -2.163000000    -2.343000000    -3.261000000
C    -2.449000000    -3.013000000    -2.090000000
H    -3.340000000    -2.827000000    -1.495000000
C    -1.585000000    -4.039000000    -1.693000000
O    -1.849000000    -4.667000000    -0.538000000
C    -1.222000000    -4.159000000     0.705000000
C    -2.281000000    -4.062000000     1.814000000
C    -1.912000000    -4.240000000     3.120000000
H    -0.923000000    -4.668000000     3.262000000
C    -3.477000000    -3.406000000     1.585000000
H    -3.738000000    -3.179000000     0.555000000
O    -0.098000000    -5.058000000     1.054000000
H    -0.792000000    -3.151000000     0.606000000
C    -0.397000000    -4.300000000    -2.373000000
C     0.686000000    -5.274000000    -1.767000000
H     1.325000000    -5.561000000    -2.605000000
H     0.255000000    -6.239000000    -1.494000000
C     1.565000000    -4.594000000    -0.696000000
C     2.761000000    -3.990000000    -1.112000000
H     2.959000000    -3.953000000    -2.181000000
C     1.115000000    -4.543000000     0.652000000
C     1.840000000    -3.737000000     1.538000000
H     1.354000000    -3.561000000     2.495000000
C     3.035000000    -3.265000000     1.198000000
O     3.702000000    -2.498000000     2.146000000
C     3.490000000    -1.121000000     2.093000000
C     3.145000000    -0.546000000     3.478000000
C     2.265000000    -1.180000000     4.379000000
H     1.863000000    -2.178000000     4.228000000
C     3.721000000     0.663000000     3.776000000
H     4.382000000     1.080000000     3.020000000
O     4.679000000    -0.586000000     1.437000000
H     2.697000000    -0.814000000     1.395000000
C     3.574000000    -3.371000000    -0.098000000
C     4.890000000    -2.697000000    -0.499000000
H     5.408000000    -3.269000000    -1.272000000
H     5.583000000    -2.806000000     0.338000000
C     4.673000000    -1.242000000    -0.948000000
C     4.623000000    -0.273000000     0.092000000
C     4.416000000     1.044000000    -0.276000000
H     4.298000000     1.741000000     0.551000000
C     4.111000000     1.415000000    -1.598000000
O     3.712000000     2.779000000    -1.827000000
C     2.359000000     2.989000000    -2.059000000
H     1.837000000     2.114000000    -1.646000000
C     1.879000000     4.201000000    -1.255000000
C     0.896000000     5.032000000    -1.688000000
H     0.492000000     4.906000000    -2.690000000
C     2.260000000     4.449000000     0.027000000
H     2.938000000     3.749000000     0.508000000
C     1.722000000     5.414000000     0.847000000
O     2.197000000     5.535000000     2.180000000
C     0.653000000     6.191000000     0.373000000
H     0.176000000     6.913000000     1.031000000
C     0.255000000     6.017000000    -0.961000000
O    -0.861000000     6.659000000    -1.396000000
C    -1.623000000     6.305000000    -2.458000000
C    -2.691000000     5.373000000    -2.299000000
H    -2.921000000     4.896000000    -1.350000000
C    -1.532000000     6.977000000    -3.736000000
H    -0.876000000     7.829000000    -3.898000000
C    -2.409000000     6.750000000    -4.775000000
H    -2.207000000     7.270000000    -5.708000000
C    -3.461000000     5.926000000    -4.465000000
H    -4.242000000     5.786000000    -5.209000000
C    -3.572000000     5.247000000    -3.253000000
O    -4.725000000     4.518000000    -2.966000000
C    -4.708000000     3.164000000    -2.615000000
C    -5.800000000     2.655000000    -1.807000000
H    -6.609000000     3.350000000    -1.597000000
C    -5.810000000     1.297000000    -1.447000000
O    -6.969000000     0.839000000    -0.763000000
C    -6.945000000    -0.507000000    -0.413000000
C    -6.410000000    -0.838000000     0.876000000
H    -5.940000000    -0.180000000     1.603000000
C    -7.391000000    -1.452000000    -1.338000000
H    -7.947000000    -1.149000000    -2.221000000
C    -7.068000000    -2.741000000    -1.028000000
H    -7.351000000    -3.608000000    -1.621000000
C    -6.473000000    -3.173000000     0.181000000
H    -6.459000000    -4.233000000     0.424000000
C    -6.190000000    -2.186000000     1.164000000
O    -5.521000000    -2.524000000     2.337000000
C    -4.323000000    -3.129000000     2.590000000
C    -3.997000000    -3.399000000     3.908000000
H    -4.540000000    -3.136000000     4.813000000
C    -2.770000000    -3.995000000     4.165000000
O    -2.306000000    -4.195000000     5.396000000
C    -0.992000000    -3.934000000     5.752000000
C    -0.567000000    -2.651000000     5.987000000
H    -1.219000000    -1.789000000     5.873000000
C    -0.136000000    -4.986000000     5.985000000
H    -0.477000000    -6.008000000     5.842000000
C     1.213000000    -4.795000000     6.468000000
H     1.886000000    -5.645000000     6.557000000
C     1.603000000    -3.453000000     6.657000000
H     2.550000000    -3.183000000     7.118000000
C     0.716000000    -2.394000000     6.484000000
O     1.202000000    -1.077000000     6.541000000
C     1.940000000    -0.483000000     5.548000000
C     2.556000000     0.779000000     5.839000000
H     2.359000000     1.235000000     6.806000000
C     3.464000000     1.340000000     4.963000000
O     4.132000000     2.489000000     5.246000000
C     4.264000000     3.563000000     4.398000000
C     5.578000000     3.995000000     4.064000000
H     6.469000000     3.616000000     4.557000000
C     5.738000000     4.812000000     2.928000000
H     6.682000000     5.142000000     2.500000000
C     4.628000000     5.264000000     2.224000000
H     4.651000000     5.868000000     1.320000000
C     3.329000000     5.037000000     2.676000000
C     3.166000000     4.198000000     3.799000000
H     2.181000000     3.901000000     4.149000000
C    -1.677000000     1.870000000     0.543000000
H    -2.055000000     2.805000000     0.137000000
C    -0.714000000     1.158000000    -0.216000000
H    -0.289000000     1.645000000    -1.090000000
C    -0.249000000    -0.002000000     0.303000000
H     0.585000000    -0.578000000    -0.157000000
C    -0.861000000    -0.597000000     1.430000000
H    -0.581000000    -1.613000000     1.698000000
C    -1.838000000     0.042000000     2.134000000
H    -2.266000000    -0.410000000     3.025000000
C    -2.258000000     1.283000000     1.712000000
C    -3.127000000     2.087000000     2.561000000
O    -3.813000000     1.564000000     3.459000000
O    -3.300000000     3.221000000     2.325000000
O    -6.141000000     2.534000000     6.200000000
H    -5.740000000     3.158000000     5.595000000
H    -6.122000000     1.700000000     5.730000000
O    -6.231000000     0.993000000     3.665000000
H    -5.341000000     1.346000000     3.661000000
H    -6.733000000     1.604000000     3.125000000
O    -8.642000000     3.522000000     6.662000000
H    -7.897000000     3.038000000     6.305000000
H    -8.274000000     4.362000000     6.934000000
O    -6.194000000     6.558000000    -0.544000000
H    -6.065000000     5.891000000     0.131000000
H    -6.112000000     7.390000000    -0.078000000
O    -3.236000000     0.791000000     5.801000000
H    -3.266000000     1.565000000     6.363000000
H    -3.350000000     1.134000000     4.914000000
O    -0.645000000     3.001000000     5.089000000
H    -0.744000000     3.680000000     4.421000000
H    -1.505000000     2.582000000     5.133000000
O    -2.816000000     6.045000000     6.243000000
H    -2.851000000     6.868000000     5.755000000
H    -3.413000000     5.462000000     5.772000000
O    -3.076000000     3.141000000     7.036000000
H    -3.106000000     3.601000000     7.874000000
H    -3.391000000     3.783000000     6.399000000
O    -7.347000000     2.774000000     1.814000000
H    -6.541000000     3.193000000     1.511000000
H    -7.746000000     2.422000000     1.018000000
O     0.942000000     6.815000000     4.391000000
H     0.630000000     6.214000000     5.069000000
H     0.726000000     6.378000000     3.567000000
O    -1.255000000     0.503000000     7.694000000
H    -2.073000000     0.689000000     7.234000000
H    -0.716000000     0.045000000     7.049000000
O    -3.158000000     7.245000000     2.298000000
H    -2.674000000     8.070000000     2.272000000
H    -3.894000000     7.379000000     1.701000000
O    -0.164000000     5.064000000     6.808000000
H    -0.956000000     5.508000000     6.505000000
H    -0.175000000     4.220000000     6.357000000
O    -4.311000000     4.175000000     4.595000000
H    -4.086000000     3.637000000     3.837000000
H    -4.822000000     4.899000000     4.233000000
O    -6.129000000     6.185000000     3.764000000
H    -7.043000000     6.419000000     3.601000000
H    -5.757000000     6.956000000     4.193000000
O     0.979000000     2.109000000     2.352000000
H     0.427000000     1.714000000     1.677000000
H     0.462000000     2.041000000     3.154000000
O    -5.412000000    -0.851000000     5.620000000
H    -4.566000000    -0.452000000     5.823000000
H    -5.738000000    -0.352000000     4.871000000
O    -1.279000000     5.185000000     2.894000000
H    -1.895000000     4.505000000     2.623000000
H    -1.770000000     6.002000000     2.809000000
O    -5.499000000     4.907000000     1.398000000
H    -5.739000000     5.274000000     2.248000000
H    -4.615000000     4.562000000     1.526000000
