215
-1463.72683
C    -3.750000000     0.507000000    -3.794000000
H    -4.046000000    -0.500000000    -3.510000000
C    -2.348000000     0.633000000    -4.159000000
C    -1.992000000     1.851000000    -4.704000000
H    -0.951000000     1.970000000    -4.994000000
C    -1.284000000    -0.479000000    -3.972000000
O    -1.919000000    -1.778000000    -4.206000000
H    -1.128000000    -0.325000000    -2.894000000
O    -0.123000000    -0.379000000    -4.798000000
C     1.139000000    -0.648000000    -4.291000000
C     1.968000000     0.424000000    -3.963000000
H     1.571000000     1.411000000    -4.182000000
C     3.179000000     0.153000000    -3.282000000
O     3.932000000     1.198000000    -2.812000000
C     3.611000000    -1.136000000    -3.024000000
C     4.853000000    -1.405000000    -2.191000000
H     5.325000000    -2.381000000    -2.325000000
C     4.615000000    -1.371000000    -0.696000000
C     4.265000000    -2.547000000    -0.025000000
H     4.228000000    -3.424000000    -0.666000000
H     5.663000000    -0.734000000    -2.485000000
C     2.780000000    -2.195000000    -3.295000000
H     3.061000000    -3.221000000    -3.071000000
C     1.583000000    -1.932000000    -3.969000000
C     0.695000000    -3.112000000    -4.381000000
H     1.366000000    -3.955000000    -4.562000000
H     0.119000000    -2.945000000    -5.294000000
C    -0.273000000    -3.393000000    -3.288000000
C     0.107000000    -4.313000000    -2.280000000
H     1.090000000    -4.755000000    -2.421000000
C    -1.508000000    -2.735000000    -3.291000000
C    -2.441000000    -3.127000000    -2.352000000
H    -3.365000000    -2.568000000    -2.472000000
C    -2.100000000    -3.954000000    -1.335000000
O    -3.041000000    -3.989000000    -0.266000000
C    -2.737000000    -3.216000000     0.871000000
C    -3.881000000    -2.434000000     1.448000000
C    -3.781000000    -1.974000000     2.736000000
H    -3.005000000    -2.243000000     3.449000000
C    -4.931000000    -1.932000000     0.624000000
H    -4.873000000    -2.222000000    -0.422000000
O    -2.062000000    -4.024000000     1.910000000
H    -2.047000000    -2.450000000     0.485000000
C    -0.809000000    -4.508000000    -1.276000000
C    -0.538000000    -5.467000000    -0.169000000
H     0.129000000    -6.269000000    -0.492000000
H    -1.422000000    -5.983000000     0.210000000
C     0.089000000    -4.707000000     0.943000000
C     1.508000000    -4.659000000     1.020000000
H     2.110000000    -5.126000000     0.245000000
C    -0.667000000    -4.065000000     1.911000000
C     0.001000000    -3.393000000     2.971000000
H    -0.609000000    -2.906000000     3.727000000
C     1.398000000    -3.241000000     2.997000000
O     2.012000000    -2.391000000     3.974000000
C     2.329000000    -1.090000000     3.471000000
C     1.852000000     0.064000000     4.268000000
C     0.756000000    -0.107000000     5.058000000
H     0.233000000    -1.059000000     5.062000000
C     2.534000000     1.317000000     4.322000000
H     3.435000000     1.397000000     3.719000000
O     3.806000000    -1.196000000     3.300000000
H     2.040000000    -1.012000000     2.412000000
C     2.135000000    -3.982000000     2.050000000
C     3.599000000    -3.821000000     2.010000000
H     4.077000000    -4.689000000     1.551000000
H     3.980000000    -3.843000000     3.033000000
C     4.003000000    -2.581000000     1.316000000
C     4.106000000    -1.308000000     1.984000000
C     4.422000000    -0.140000000     1.296000000
H     4.599000000     0.849000000     1.709000000
C     4.748000000    -0.179000000    -0.050000000
O     4.823000000     1.002000000    -0.741000000
C     3.658000000     1.480000000    -1.434000000
H     2.794000000     0.850000000    -1.175000000
C     3.403000000     2.999000000    -1.199000000
C     2.458000000     3.739000000    -1.951000000
H     1.791000000     3.234000000    -2.644000000
C     3.917000000     3.682000000    -0.094000000
H     4.716000000     3.259000000     0.510000000
C     3.629000000     5.019000000     0.108000000
O     4.260000000     5.674000000     1.115000000
C     2.787000000     5.677000000    -0.754000000
H     2.633000000     6.721000000    -0.491000000
C     2.206000000     5.031000000    -1.754000000
O     1.278000000     5.695000000    -2.532000000
C     0.803000000     5.289000000    -3.753000000
C    -0.561000000     4.894000000    -3.838000000
H    -1.244000000     4.944000000    -2.995000000
C     1.590000000     5.318000000    -4.961000000
H     2.654000000     5.539000000    -4.937000000
C     0.987000000     4.995000000    -6.212000000
H     1.560000000     5.050000000    -7.134000000
C    -0.340000000     4.547000000    -6.226000000
H    -0.882000000     4.370000000    -7.151000000
C    -1.069000000     4.498000000    -5.054000000
O    -2.432000000     4.148000000    -5.215000000
C    -2.904000000     2.899000000    -4.796000000
C    -4.234000000     2.732000000    -4.540000000
H    -4.939000000     3.560000000    -4.515000000
C    -4.674000000     1.482000000    -4.065000000
O    -5.989000000     1.455000000    -3.661000000
C    -6.516000000     0.336000000    -2.970000000
C    -6.608000000     0.388000000    -1.580000000
H    -6.294000000     1.256000000    -1.005000000
C    -6.807000000    -0.768000000    -3.736000000
H    -6.662000000    -0.679000000    -4.810000000
C    -7.309000000    -1.873000000    -3.047000000
H    -7.685000000    -2.691000000    -3.656000000
C    -7.449000000    -1.839000000    -1.628000000
H    -7.761000000    -2.783000000    -1.188000000
C    -7.049000000    -0.724000000    -0.907000000
O    -7.068000000    -0.655000000     0.448000000
C    -5.999000000    -1.198000000     1.220000000
C    -5.924000000    -0.820000000     2.572000000
H    -6.686000000    -0.217000000     3.059000000
C    -4.797000000    -1.242000000     3.320000000
O    -4.707000000    -0.720000000     4.606000000
C    -3.706000000    -0.983000000     5.454000000
C    -2.724000000    -0.045000000     5.552000000
H    -2.913000000     0.921000000     5.092000000
C    -3.557000000    -2.221000000     6.053000000
H    -4.302000000    -2.968000000     5.791000000
C    -2.453000000    -2.522000000     6.903000000
H    -2.354000000    -3.545000000     7.258000000
C    -1.552000000    -1.505000000     7.068000000
H    -0.710000000    -1.752000000     7.709000000
C    -1.717000000    -0.245000000     6.465000000
O    -0.774000000     0.725000000     6.688000000
C     0.365000000     0.845000000     5.902000000
C     0.955000000     2.111000000     5.952000000
H     0.594000000     2.892000000     6.616000000
C     2.053000000     2.345000000     5.149000000
O     2.617000000     3.569000000     5.099000000
C     3.700000000     3.995000000     4.378000000
C     4.943000000     4.193000000     4.976000000
H     5.162000000     3.773000000     5.954000000
C     5.988000000     4.677000000     4.265000000
H     6.911000000     4.801000000     4.826000000
C     5.788000000     5.271000000     3.040000000
H     6.560000000     5.903000000     2.609000000
C     4.490000000     5.153000000     2.415000000
C     3.450000000     4.435000000     3.082000000
H     2.466000000     4.346000000     2.628000000
C    -0.829000000     1.751000000     2.126000000
H    -1.210000000     1.898000000     3.133000000
C    -0.755000000     0.462000000     1.566000000
H    -1.084000000    -0.417000000     2.114000000
C    -0.125000000     0.296000000     0.342000000
H    -0.065000000    -0.723000000     0.007000000
C     0.234000000     1.421000000    -0.358000000
H     0.679000000     1.317000000    -1.344000000
C     0.124000000     2.716000000     0.131000000
H     0.241000000     3.541000000    -0.568000000
C    -0.379000000     2.911000000     1.399000000
C    -0.608000000     4.245000000     1.923000000
O    -0.531000000     5.271000000     1.232000000
O    -1.087000000     4.408000000     3.034000000
O    -3.648000000     3.492000000     6.370000000
H    -3.534000000     3.060000000     7.217000000
H    -2.758000000     3.708000000     6.090000000
O    -2.298000000     6.584000000     3.717000000
H    -3.057000000     6.665000000     3.138000000
H    -1.804000000     5.845000000     3.362000000
O    -2.751000000    10.884000000     3.544000000
H    -2.387000000    11.768000000     3.494000000
H    -2.293000000    10.398000000     2.858000000
O    -6.462000000     2.091000000     2.358000000
H    -6.062000000     1.413000000     1.814000000
H    -5.763000000     2.730000000     2.497000000
O     0.911000000     7.143000000     2.624000000
H     0.940000000     6.871000000     3.541000000
H     0.538000000     6.392000000     2.163000000
O    -5.207000000     5.621000000     5.979000000
H    -5.445000000     5.886000000     6.868000000
H    -4.684000000     4.828000000     6.097000000
O     0.830000000     5.892000000     7.093000000
H     1.643000000     5.565000000     6.708000000
H     0.601000000     5.243000000     7.758000000
O    -4.808000000     5.920000000     2.953000000
H    -4.903000000     5.839000000     3.902000000
H    -5.296000000     6.712000000     2.729000000
O     1.407000000     9.855000000     2.509000000
H     1.162000000    10.143000000     3.389000000
H     1.249000000     8.911000000     2.513000000
O    -1.207000000     4.354000000     5.565000000
H    -1.089000000     4.169000000     4.633000000
H    -1.255000000     5.309000000     5.615000000
O    -0.474000000     7.796000000     0.269000000
H    -0.591000000     6.886000000    -0.003000000
H    -0.099000000     7.737000000     1.147000000
O    -3.739000000     1.295000000     0.659000000
H    -2.855000000     0.955000000     0.522000000
H    -3.703000000     1.717000000     1.518000000
O    -5.292000000     3.648000000    -0.291000000
H    -4.899000000     4.489000000    -0.526000000
H    -4.562000000     3.029000000    -0.312000000
O    -3.166000000     7.406000000    -2.008000000
H    -2.968000000     8.141000000    -1.428000000
H    -3.185000000     6.643000000    -1.431000000
O    -3.327000000     5.825000000     0.308000000
H    -2.429000000     5.955000000     0.614000000
H    -3.854000000     5.820000000     1.107000000
O     0.286000000     8.429000000     7.125000000
H    -0.506000000     8.536000000     6.596000000
H     0.573000000     7.533000000     6.948000000
O    -2.603000000     9.233000000    -0.244000000
H    -1.822000000     8.822000000     0.125000000
H    -2.275000000    10.013000000    -0.692000000
O    -2.089000000     8.449000000     5.613000000
H    -2.186000000     9.312000000     5.212000000
H    -2.369000000     7.836000000     4.932000000
O    -3.717000000     3.314000000     2.934000000
H    -2.817000000     3.458000000     3.227000000
H    -4.137000000     4.170000000     3.021000000
