215
-1443.81847
C    -3.591000000     0.511000000    -3.655000000
H    -3.628000000    -0.512000000    -4.022000000
C    -2.375000000     1.234000000    -3.554000000
C    -2.405000000     2.606000000    -3.140000000
H    -1.463000000     3.109000000    -2.935000000
C    -1.007000000     0.626000000    -3.815000000
O    -1.277000000    -0.575000000    -4.540000000
H    -0.663000000     0.321000000    -2.816000000
O    -0.140000000     1.483000000    -4.512000000
C     1.108000000     1.371000000    -4.104000000
C     1.376000000     2.296000000    -3.098000000
H     0.539000000     2.952000000    -2.874000000
C     2.562000000     2.327000000    -2.445000000
O     2.820000000     3.328000000    -1.603000000
C     3.515000000     1.320000000    -2.740000000
C     4.852000000     1.350000000    -2.125000000
H     5.475000000     0.641000000    -2.674000000
C     4.855000000     0.873000000    -0.720000000
C     4.940000000    -0.480000000    -0.596000000
H     5.002000000    -1.190000000    -1.417000000
H     5.300000000     2.345000000    -2.075000000
C     3.196000000     0.275000000    -3.655000000
H     3.910000000    -0.514000000    -3.877000000
C     1.972000000     0.313000000    -4.360000000
C     1.581000000    -0.834000000    -5.289000000
H     2.515000000    -1.297000000    -5.613000000
H     0.995000000    -0.397000000    -6.099000000
C     0.789000000    -1.801000000    -4.461000000
C     1.437000000    -2.942000000    -3.931000000
H     2.465000000    -3.004000000    -4.278000000
C    -0.538000000    -1.673000000    -4.229000000
C    -1.225000000    -2.597000000    -3.447000000
H    -2.289000000    -2.483000000    -3.255000000
C    -0.543000000    -3.730000000    -2.972000000
O    -1.219000000    -4.543000000    -2.099000000
C    -1.085000000    -4.343000000    -0.701000000
C    -2.404000000    -4.442000000     0.051000000
C    -2.445000000    -4.868000000     1.394000000
H    -1.568000000    -5.251000000     1.911000000
C    -3.588000000    -4.022000000    -0.614000000
H    -3.540000000    -3.698000000    -1.651000000
O    -0.045000000    -5.200000000    -0.121000000
H    -0.752000000    -3.302000000    -0.575000000
C     0.826000000    -3.944000000    -3.208000000
C     1.679000000    -4.911000000    -2.513000000
H     2.528000000    -5.233000000    -3.120000000
H     1.055000000    -5.800000000    -2.402000000
C     2.018000000    -4.404000000    -1.129000000
C     3.239000000    -3.760000000    -0.870000000
H     3.951000000    -3.768000000    -1.691000000
C     1.151000000    -4.660000000    -0.021000000
C     1.423000000    -4.211000000     1.249000000
H     0.711000000    -4.249000000     2.069000000
C     2.572000000    -3.451000000     1.461000000
O     2.679000000    -2.836000000     2.710000000
C     2.687000000    -1.428000000     2.779000000
C     1.796000000    -0.933000000     3.954000000
C     0.585000000    -1.591000000     4.199000000
H     0.315000000    -2.474000000     3.625000000
C     2.144000000     0.205000000     4.716000000
H     3.037000000     0.772000000     4.465000000
O     4.051000000    -0.872000000     2.889000000
H     2.269000000    -1.009000000     1.852000000
C     3.510000000    -3.240000000     0.411000000
C     4.774000000    -2.572000000     0.689000000
H     5.542000000    -2.977000000     0.027000000
H     5.080000000    -2.884000000     1.690000000
C     4.746000000    -1.088000000     0.638000000
C     4.466000000    -0.329000000     1.730000000
C     4.437000000     1.086000000     1.593000000
H     4.027000000     1.678000000     2.407000000
C     4.587000000     1.702000000     0.333000000
O     4.070000000     2.970000000     0.224000000
C     2.745000000     3.206000000    -0.226000000
H     2.110000000     2.404000000     0.178000000
C     2.168000000     4.490000000     0.364000000
C     1.268000000     5.247000000    -0.314000000
H     1.141000000     5.099000000    -1.384000000
C     2.286000000     4.698000000     1.719000000
H     3.011000000     4.056000000     2.212000000
C     1.626000000     5.658000000     2.438000000
O     1.757000000     5.930000000     3.770000000
C     0.794000000     6.525000000     1.718000000
H     0.184000000     7.262000000     2.234000000
C     0.627000000     6.332000000     0.359000000
O    -0.217000000     7.210000000    -0.313000000
C    -0.913000000     6.833000000    -1.464000000
C    -1.809000000     5.756000000    -1.439000000
H    -1.806000000     5.062000000    -0.602000000
C    -0.788000000     7.559000000    -2.582000000
H    -0.099000000     8.397000000    -2.503000000
C    -1.576000000     7.295000000    -3.756000000
H    -1.448000000     7.892000000    -4.656000000
C    -2.499000000     6.239000000    -3.697000000
H    -2.976000000     5.891000000    -4.610000000
C    -2.613000000     5.478000000    -2.550000000
O    -3.612000000     4.561000000    -2.496000000
C    -3.623000000     3.260000000    -2.887000000
C    -4.831000000     2.598000000    -3.050000000
H    -5.751000000     3.159000000    -2.910000000
C    -4.848000000     1.202000000    -3.430000000
O    -6.002000000     0.524000000    -3.750000000
C    -6.261000000    -0.751000000    -3.347000000
C    -5.813000000    -1.311000000    -2.133000000
H    -5.261000000    -0.742000000    -1.390000000
C    -7.124000000    -1.535000000    -4.179000000
H    -7.516000000    -1.051000000    -5.070000000
C    -7.291000000    -2.883000000    -3.992000000
H    -8.022000000    -3.410000000    -4.598000000
C    -6.734000000    -3.403000000    -2.799000000
H    -6.983000000    -4.435000000    -2.568000000
C    -6.079000000    -2.619000000    -1.825000000
O    -5.851000000    -3.212000000    -0.524000000
C    -4.732000000    -3.836000000     0.039000000
C    -4.778000000    -4.259000000     1.355000000
H    -5.694000000    -4.109000000     1.920000000
C    -3.721000000    -4.810000000     2.041000000
O    -3.929000000    -5.277000000     3.310000000
C    -3.009000000    -4.794000000     4.237000000
C    -2.663000000    -3.459000000     4.393000000
H    -3.250000000    -2.756000000     3.808000000
C    -2.280000000    -5.741000000     4.956000000
H    -2.534000000    -6.796000000     4.884000000
C    -1.246000000    -5.356000000     5.877000000
H    -0.639000000    -6.142000000     6.319000000
C    -1.057000000    -3.985000000     6.072000000
H    -0.296000000    -3.613000000     6.752000000
C    -1.758000000    -3.073000000     5.325000000
O    -1.508000000    -1.758000000     5.466000000
C    -0.254000000    -1.153000000     5.232000000
C     0.050000000     0.040000000     5.862000000
H    -0.718000000     0.399000000     6.543000000
C     1.209000000     0.772000000     5.606000000
O     1.396000000     1.918000000     6.293000000
C     2.103000000     2.995000000     5.881000000
C     3.340000000     3.289000000     6.475000000
H     3.867000000     2.712000000     7.231000000
C     4.087000000     4.402000000     6.062000000
H     5.105000000     4.485000000     6.436000000
C     3.594000000     5.198000000     5.070000000
H     4.222000000     6.022000000     4.742000000
C     2.273000000     5.031000000     4.674000000
C     1.535000000     3.945000000     5.041000000
H     0.516000000     3.863000000     4.673000000
C    -1.723000000     1.366000000     0.422000000
H    -1.816000000     2.415000000     0.152000000
C    -0.490000000     0.716000000     0.282000000
H     0.343000000     1.189000000    -0.231000000
C    -0.418000000    -0.633000000     0.605000000
H     0.460000000    -1.066000000     0.361000000
C    -1.427000000    -1.265000000     1.270000000
H    -1.317000000    -2.321000000     1.505000000
C    -2.621000000    -0.563000000     1.495000000
H    -3.375000000    -1.068000000     2.093000000
C    -2.790000000     0.731000000     1.048000000
C    -4.136000000     1.347000000     1.263000000
O    -4.939000000     0.757000000     1.963000000
O    -4.454000000     2.308000000     0.658000000
O    -9.735000000     3.568000000     0.303000000
H    -8.778000000     3.567000000     0.283000000
H    -9.983000000     4.362000000    -0.169000000
O    -8.420000000     0.845000000    -1.572000000
H    -8.201000000     1.024000000    -2.486000000
H    -8.162000000     1.640000000    -1.104000000
O    -7.145000000    -0.788000000     1.505000000
H    -6.400000000    -0.209000000     1.663000000
H    -7.305000000    -0.722000000     0.563000000
O    -5.206000000     3.750000000     5.750000000
H    -4.674000000     2.973000000     5.578000000
H    -5.781000000     3.492000000     6.470000000
O    -3.084000000     2.118000000     5.247000000
H    -3.281000000     2.090000000     6.184000000
H    -3.415000000     1.286000000     4.908000000
O    -2.298000000     4.674000000     5.664000000
H    -2.040000000     4.706000000     4.743000000
H    -2.683000000     3.804000000     5.774000000
O    -6.925000000     3.587000000     0.160000000
H    -6.106000000     3.098000000     0.243000000
H    -6.709000000     4.318000000    -0.419000000
O    -4.691000000     6.881000000     1.116000000
H    -5.175000000     6.630000000     0.329000000
H    -4.774000000     6.126000000     1.698000000
O    -5.731000000     5.712000000    -0.964000000
H    -4.896000000     5.262000000    -1.092000000
H    -5.994000000     5.982000000    -1.844000000
O    -6.537000000    -1.742000000     4.652000000
H    -7.450000000    -1.809000000     4.372000000
H    -6.588000000    -1.515000000     5.581000000
O    -8.909000000    -2.450000000     2.719000000
H    -8.170000000    -1.923000000     2.415000000
H    -8.987000000    -3.149000000     2.070000000
O    -8.797000000     4.032000000     3.906000000
H    -9.378000000     3.272000000     3.894000000
H    -7.952000000     3.692000000     3.612000000
O    -6.822000000     2.448000000     2.829000000
H    -6.120000000     1.809000000     2.705000000
H    -6.800000000     2.985000000     2.037000000
O    -9.167000000     0.710000000     3.692000000
H    -8.326000000     1.052000000     3.390000000
H    -9.640000000     0.493000000     2.889000000
O    -3.770000000    -1.688000000     7.229000000
H    -4.617000000    -1.256000000     7.115000000
H    -3.233000000    -1.355000000     6.510000000
O    -1.416000000     2.713000000     2.967000000
H    -0.976000000     1.927000000     2.645000000
H    -1.960000000     2.404000000     3.691000000
O    -4.347000000    -0.118000000     4.253000000
H    -4.441000000     0.287000000     3.391000000
H    -5.052000000    -0.764000000     4.293000000
O    -2.098000000     5.290000000     3.099000000
H    -1.556000000     4.512000000     2.970000000
H    -2.957000000     5.042000000     2.759000000
O    -4.737000000     4.530000000     2.402000000
H    -5.042000000     4.268000000     3.271000000
H    -4.714000000     3.716000000     1.900000000
