215
-1453.91990
C    -3.872000000     0.120000000    -3.775000000
H    -3.841000000    -0.966000000    -3.756000000
C    -2.724000000     0.907000000    -3.855000000
C    -2.730000000     2.329000000    -3.689000000
H    -1.811000000     2.899000000    -3.578000000
C    -1.350000000     0.238000000    -4.045000000
O    -1.359000000    -0.894000000    -4.951000000
H    -0.964000000    -0.052000000    -3.057000000
O    -0.465000000     1.121000000    -4.741000000
C     0.830000000     1.178000000    -4.278000000
C     1.189000000     2.285000000    -3.497000000
H     0.395000000     2.981000000    -3.238000000
C     2.446000000     2.281000000    -2.832000000
O     2.753000000     3.442000000    -2.095000000
C     3.364000000     1.267000000    -3.078000000
C     4.747000000     1.326000000    -2.397000000
H     5.359000000     0.660000000    -3.009000000
C     4.640000000     0.843000000    -0.974000000
C     4.953000000    -0.491000000    -0.729000000
H     5.219000000    -1.143000000    -1.557000000
H     5.241000000     2.291000000    -2.537000000
C     2.992000000     0.247000000    -3.988000000
H     3.792000000    -0.414000000    -4.311000000
C     1.738000000     0.165000000    -4.617000000
C     1.376000000    -1.051000000    -5.494000000
H     2.232000000    -1.603000000    -5.888000000
H     0.814000000    -0.711000000    -6.367000000
C     0.662000000    -2.100000000    -4.574000000
C     1.365000000    -2.960000000    -3.734000000
H     2.408000000    -3.170000000    -3.959000000
C    -0.767000000    -1.992000000    -4.421000000
C    -1.484000000    -2.772000000    -3.510000000
H    -2.525000000    -2.651000000    -3.221000000
C    -0.728000000    -3.585000000    -2.717000000
O    -1.436000000    -4.181000000    -1.704000000
C    -1.328000000    -3.772000000    -0.322000000
C    -2.613000000    -3.532000000     0.378000000
C    -2.549000000    -3.452000000     1.726000000
H    -1.620000000    -3.278000000     2.262000000
C    -3.826000000    -3.472000000    -0.334000000
H    -3.833000000    -3.414000000    -1.420000000
O    -0.313000000    -4.582000000     0.322000000
H    -0.895000000    -2.766000000    -0.422000000
C     0.654000000    -3.779000000    -2.805000000
C     1.416000000    -4.814000000    -2.029000000
H     2.252000000    -5.105000000    -2.669000000
H     0.733000000    -5.614000000    -1.735000000
C     1.932000000    -4.254000000    -0.664000000
C     3.229000000    -3.751000000    -0.502000000
H     3.904000000    -3.812000000    -1.352000000
C     1.022000000    -4.227000000     0.419000000
C     1.531000000    -3.890000000     1.697000000
H     0.901000000    -3.924000000     2.582000000
C     2.757000000    -3.278000000     1.809000000
O     3.000000000    -2.590000000     3.026000000
C     3.020000000    -1.114000000     3.104000000
C     2.382000000    -0.688000000     4.368000000
C     1.292000000    -1.464000000     4.848000000
H     0.895000000    -2.360000000     4.377000000
C     2.713000000     0.513000000     4.985000000
H     3.577000000     1.102000000     4.687000000
O     4.389000000    -0.569000000     2.921000000
H     2.397000000    -0.740000000     2.279000000
C     3.600000000    -3.154000000     0.696000000
C     5.019000000    -2.508000000     0.826000000
H     5.708000000    -2.963000000     0.111000000
H     5.447000000    -2.751000000     1.801000000
C     4.938000000    -0.965000000     0.558000000
C     4.650000000    -0.114000000     1.644000000
C     4.266000000     1.203000000     1.357000000
H     3.840000000     1.844000000     2.124000000
C     4.354000000     1.677000000     0.059000000
O     3.992000000     2.972000000    -0.151000000
C     2.664000000     3.242000000    -0.684000000
H     2.116000000     2.301000000    -0.534000000
C     1.912000000     4.291000000     0.087000000
C     0.788000000     4.908000000    -0.467000000
H     0.464000000     4.540000000    -1.437000000
C     2.196000000     4.507000000     1.429000000
H     3.066000000     3.989000000     1.824000000
C     1.412000000     5.277000000     2.216000000
O     1.796000000     5.641000000     3.487000000
C     0.314000000     5.966000000     1.621000000
H    -0.404000000     6.608000000     2.126000000
C    -0.029000000     5.736000000     0.312000000
O    -1.195000000     6.313000000    -0.190000000
C    -1.577000000     6.212000000    -1.546000000
C    -2.694000000     5.408000000    -1.752000000
H    -3.120000000     4.926000000    -0.875000000
C    -0.961000000     6.838000000    -2.550000000
H    -0.028000000     7.345000000    -2.318000000
C    -1.350000000     6.601000000    -3.863000000
H    -0.893000000     7.181000000    -4.661000000
C    -2.483000000     5.787000000    -4.137000000
H    -2.748000000     5.623000000    -5.178000000
C    -3.187000000     5.160000000    -3.041000000
O    -4.176000000     4.263000000    -3.306000000
C    -3.985000000     2.934000000    -3.598000000
C    -5.166000000     2.193000000    -3.677000000
H    -6.125000000     2.701000000    -3.604000000
C    -5.095000000     0.825000000    -3.843000000
O    -6.254000000     0.103000000    -3.683000000
C    -6.349000000    -1.212000000    -3.355000000
C    -6.176000000    -1.536000000    -2.026000000
H    -5.699000000    -0.817000000    -1.364000000
C    -6.771000000    -2.150000000    -4.331000000
H    -6.968000000    -1.825000000    -5.349000000
C    -7.063000000    -3.481000000    -3.934000000
H    -7.412000000    -4.202000000    -4.669000000
C    -6.911000000    -3.814000000    -2.603000000
H    -7.098000000    -4.852000000    -2.340000000
C    -6.382000000    -2.875000000    -1.625000000
O    -6.228000000    -3.200000000    -0.312000000
C    -5.032000000    -3.262000000     0.332000000
C    -5.041000000    -3.240000000     1.697000000
H    -5.962000000    -3.143000000     2.266000000
C    -3.757000000    -3.315000000     2.384000000
O    -3.696000000    -3.359000000     3.776000000
C    -2.704000000    -3.787000000     4.630000000
C    -1.967000000    -2.730000000     5.170000000
H    -2.277000000    -1.716000000     4.931000000
C    -2.459000000    -5.120000000     4.949000000
H    -3.078000000    -5.926000000     4.563000000
C    -1.454000000    -5.339000000     5.879000000
H    -1.284000000    -6.357000000     6.219000000
C    -0.610000000    -4.258000000     6.316000000
H     0.145000000    -4.395000000     7.085000000
C    -0.919000000    -2.935000000     5.973000000
O    -0.351000000    -1.861000000     6.530000000
C     0.596000000    -1.014000000     5.963000000
C     0.916000000     0.158000000     6.550000000
H     0.319000000     0.490000000     7.395000000
C     1.972000000     0.922000000     6.090000000
O     2.248000000     2.178000000     6.662000000
C     2.890000000     3.176000000     5.969000000
C     4.248000000     3.350000000     5.983000000
H     4.817000000     2.724000000     6.667000000
C     4.794000000     4.426000000     5.290000000
H     5.866000000     4.592000000     5.214000000
C     3.971000000     5.207000000     4.410000000
H     4.490000000     6.015000000     3.900000000
C     2.656000000     4.883000000     4.299000000
C     2.124000000     3.948000000     5.077000000
H     1.045000000     3.830000000     5.128000000
C    -1.905000000     1.284000000    -0.370000000
H    -2.368000000     1.973000000    -1.071000000
C    -0.531000000     1.093000000    -0.432000000
H     0.027000000     1.616000000    -1.205000000
C     0.151000000     0.309000000     0.495000000
H     1.239000000     0.282000000     0.380000000
C    -0.549000000    -0.358000000     1.445000000
H    -0.046000000    -0.866000000     2.264000000
C    -1.975000000    -0.142000000     1.513000000
H    -2.440000000    -0.556000000     2.404000000
C    -2.623000000     0.593000000     0.545000000
C    -4.132000000     0.839000000     0.766000000
O    -4.755000000     0.222000000     1.605000000
O    -4.743000000     1.635000000     0.089000000
O    -9.717000000     3.332000000     1.246000000
H    -9.010000000     3.212000000     0.612000000
H   -10.207000000     4.086000000     0.918000000
O    -8.313000000     1.245000000    -1.661000000
H    -7.689000000     0.640000000    -2.060000000
H    -7.771000000     1.951000000    -1.309000000
O    -8.930000000    -0.673000000     0.595000000
H    -9.359000000    -0.239000000    -0.143000000
H    -8.263000000    -0.050000000     0.884000000
O    -5.300000000     2.256000000     3.328000000
H    -5.205000000     1.613000000     2.625000000
H    -6.244000000     2.311000000     3.476000000
O    -2.944000000     1.736000000     4.880000000
H    -2.959000000     1.172000000     5.653000000
H    -3.851000000     2.023000000     4.775000000
O    -6.788000000     3.147000000    -0.162000000
H    -5.908000000     2.774000000    -0.129000000
H    -6.655000000     4.087000000    -0.041000000
O    -4.849000000     6.269000000     1.698000000
H    -5.488000000     6.361000000     0.992000000
H    -4.496000000     5.386000000     1.589000000
O    -6.774000000    -0.107000000     5.844000000
H    -6.191000000    -0.563000000     5.237000000
H    -7.641000000    -0.182000000     5.445000000
O    -6.827000000     6.109000000    -0.256000000
H    -7.543000000     5.949000000    -0.872000000
H    -7.211000000     6.671000000     0.416000000
O    -8.680000000    -3.136000000     2.078000000
H    -8.484000000    -2.445000000     1.445000000
H    -8.606000000    -3.948000000     1.576000000
O    -8.779000000     2.677000000     3.798000000
H    -8.738000000     1.724000000     3.878000000
H    -8.975000000     2.832000000     2.874000000
O    -7.152000000     0.986000000     1.510000000
H    -6.283000000     0.604000000     1.635000000
H    -7.055000000     1.557000000     0.748000000
O    -4.143000000     6.324000000     4.501000000
H    -3.728000000     5.469000000     4.617000000
H    -4.232000000     6.420000000     3.553000000
O    -8.990000000    -0.182000000     4.051000000
H    -8.737000000    -0.197000000     3.129000000
H    -9.893000000    -0.501000000     4.057000000
O    -4.851000000    -0.693000000     7.485000000
H    -5.233000000    -0.637000000     8.360000000
H    -5.566000000    -0.453000000     6.895000000
O    -0.520000000     2.445000000     2.705000000
H    -0.249000000     1.895000000     1.970000000
H    -1.170000000     1.920000000     3.171000000
O    -5.169000000    -0.889000000     3.844000000
H    -4.977000000    -0.473000000     3.003000000
H    -4.642000000    -1.688000000     3.841000000
O    -2.147000000     4.430000000     4.006000000
H    -1.430000000     4.091000000     3.470000000
H    -2.765000000     3.702000000     4.069000000
O    -4.021000000     3.764000000     1.381000000
H    -4.300000000     3.282000000     2.159000000
H    -3.931000000     3.094000000     0.703000000
