215
-1442.53422
C    -3.931000000    -0.034000000    -3.563000000
H    -3.607000000    -1.068000000    -3.649000000
C    -3.061000000     0.984000000    -3.892000000
C    -3.360000000     2.310000000    -3.710000000
H    -2.594000000     3.014000000    -4.025000000
C    -1.548000000     0.549000000    -4.180000000
O    -1.525000000    -0.741000000    -4.886000000
H    -1.112000000     0.439000000    -3.176000000
O    -0.771000000     1.558000000    -4.912000000
C     0.552000000     1.762000000    -4.464000000
C     0.758000000     2.927000000    -3.702000000
H    -0.035000000     3.644000000    -3.506000000
C     1.985000000     3.142000000    -2.996000000
O     1.929000000     4.146000000    -1.991000000
C     3.014000000     2.235000000    -3.309000000
C     4.290000000     2.305000000    -2.565000000
H     5.147000000     1.934000000    -3.133000000
C     4.464000000     1.718000000    -1.182000000
C     4.969000000     0.470000000    -1.054000000
H     5.263000000    -0.125000000    -1.916000000
H     4.655000000     3.333000000    -2.534000000
C     2.759000000     1.059000000    -4.026000000
H     3.574000000     0.341000000    -4.077000000
C     1.522000000     0.798000000    -4.563000000
C     1.254000000    -0.499000000    -5.383000000
H     2.276000000    -0.694000000    -5.717000000
H     0.643000000    -0.354000000    -6.276000000
C     0.700000000    -1.646000000    -4.551000000
C     1.596000000    -2.551000000    -4.000000000
H     2.664000000    -2.352000000    -4.004000000
C    -0.682000000    -1.775000000    -4.455000000
C    -1.052000000    -2.885000000    -3.662000000
H    -2.099000000    -3.010000000    -3.396000000
C    -0.181000000    -3.773000000    -3.018000000
O    -0.684000000    -4.543000000    -2.055000000
C    -0.603000000    -4.180000000    -0.657000000
C    -1.888000000    -4.500000000     0.017000000
C    -1.848000000    -4.631000000     1.422000000
H    -0.900000000    -4.654000000     1.954000000
C    -3.091000000    -4.614000000    -0.589000000
H    -3.161000000    -4.525000000    -1.670000000
O     0.515000000    -4.831000000    -0.058000000
H    -0.471000000    -3.090000000    -0.591000000
C     1.176000000    -3.582000000    -3.190000000
C     2.183000000    -4.503000000    -2.514000000
H     3.005000000    -4.638000000    -3.219000000
H     1.648000000    -5.455000000    -2.526000000
C     2.580000000    -4.004000000    -1.161000000
C     3.790000000    -3.240000000    -1.068000000
H     4.451000000    -2.992000000    -1.894000000
C     1.728000000    -4.127000000    -0.080000000
C     2.004000000    -3.452000000     1.133000000
H     1.240000000    -3.510000000     1.904000000
C     3.151000000    -2.672000000     1.258000000
O     3.375000000    -2.132000000     2.503000000
C     3.091000000    -0.755000000     2.769000000
C     2.537000000    -0.612000000     4.126000000
C     1.542000000    -1.467000000     4.529000000
H     1.409000000    -2.406000000     3.998000000
C     2.701000000     0.607000000     4.812000000
H     3.426000000     1.330000000     4.446000000
O     4.253000000     0.047000000     2.617000000
H     2.336000000    -0.379000000     2.064000000
C     4.025000000    -2.582000000     0.135000000
C     5.254000000    -1.630000000     0.335000000
H     6.035000000    -1.795000000    -0.411000000
H     5.809000000    -1.803000000     1.260000000
C     4.827000000    -0.161000000     0.218000000
C     4.369000000     0.567000000     1.370000000
C     4.140000000     1.927000000     1.200000000
H     3.615000000     2.479000000     1.976000000
C     4.103000000     2.464000000    -0.094000000
O     3.572000000     3.723000000    -0.214000000
C     2.246000000     3.668000000    -0.627000000
H     1.892000000     2.637000000    -0.481000000
C     1.280000000     4.391000000     0.367000000
C    -0.152000000     4.434000000     0.088000000
H    -0.623000000     3.967000000    -0.774000000
C     1.672000000     4.898000000     1.601000000
H     2.714000000     4.865000000     1.910000000
C     0.700000000     5.518000000     2.467000000
O     1.115000000     5.872000000     3.795000000
C    -0.622000000     5.692000000     2.173000000
H    -1.337000000     6.146000000     2.855000000
C    -1.013000000     5.093000000     1.008000000
O    -2.364000000     5.283000000     0.721000000
C    -2.826000000     5.643000000    -0.529000000
C    -3.763000000     4.806000000    -1.176000000
H    -4.271000000     4.049000000    -0.585000000
C    -2.156000000     6.604000000    -1.300000000
H    -1.357000000     7.258000000    -0.960000000
C    -2.407000000     6.725000000    -2.701000000
H    -1.922000000     7.425000000    -3.376000000
C    -3.316000000     5.847000000    -3.277000000
H    -3.532000000     5.857000000    -4.343000000
C    -4.030000000     4.917000000    -2.521000000
O    -4.958000000     3.969000000    -2.945000000
C    -4.650000000     2.669000000    -3.218000000
C    -5.552000000     1.654000000    -2.912000000
H    -6.580000000     1.867000000    -2.627000000
C    -5.140000000     0.347000000    -3.100000000
O    -5.980000000    -0.636000000    -2.486000000
C    -5.932000000    -2.024000000    -2.650000000
C    -5.663000000    -2.821000000    -1.585000000
H    -5.417000000    -2.355000000    -0.634000000
C    -6.386000000    -2.593000000    -3.826000000
H    -6.592000000    -1.945000000    -4.674000000
C    -6.371000000    -4.001000000    -4.005000000
H    -6.681000000    -4.246000000    -5.018000000
C    -6.138000000    -4.873000000    -2.884000000
H    -6.301000000    -5.947000000    -2.917000000
C    -5.747000000    -4.273000000    -1.724000000
O    -5.420000000    -5.030000000    -0.591000000
C    -4.241000000    -4.920000000     0.127000000
C    -4.233000000    -4.984000000     1.519000000
H    -5.120000000    -5.247000000     2.090000000
C    -3.008000000    -4.881000000     2.153000000
O    -3.010000000    -4.943000000     3.522000000
C    -1.904000000    -4.781000000     4.335000000
C    -1.610000000    -3.478000000     4.774000000
H    -2.229000000    -2.608000000     4.573000000
C    -0.977000000    -5.798000000     4.688000000
H    -1.195000000    -6.841000000     4.474000000
C     0.029000000    -5.476000000     5.594000000
H     0.541000000    -6.267000000     6.136000000
C     0.329000000    -4.167000000     5.984000000
H     1.216000000    -3.990000000     6.587000000
C    -0.534000000    -3.171000000     5.582000000
O    -0.379000000    -1.838000000     6.002000000
C     0.724000000    -1.119000000     5.634000000
C     0.917000000     0.094000000     6.298000000
H     0.265000000     0.361000000     7.126000000
C     1.873000000     0.968000000     5.890000000
O     1.996000000     2.203000000     6.653000000
C     2.436000000     3.337000000     6.025000000
C     3.663000000     3.916000000     6.364000000
H     4.263000000     3.489000000     7.163000000
C     4.078000000     5.154000000     5.774000000
H     4.985000000     5.733000000     5.928000000
C     3.212000000     5.757000000     4.844000000
H     3.501000000     6.674000000     4.338000000
C     2.036000000     5.154000000     4.524000000
C     1.590000000     3.950000000     5.163000000
H     0.601000000     3.508000000     5.069000000
C    -2.007000000     1.127000000     0.172000000
H    -2.514000000     1.991000000    -0.250000000
C    -0.681000000     0.789000000    -0.141000000
H    -0.108000000     1.400000000    -0.833000000
C    -0.161000000    -0.436000000     0.347000000
H     0.870000000    -0.697000000     0.244000000
C    -0.937000000    -1.235000000     1.160000000
H    -0.551000000    -2.111000000     1.675000000
C    -2.213000000    -0.847000000     1.561000000
H    -2.789000000    -1.387000000     2.308000000
C    -2.788000000     0.250000000     0.939000000
C    -4.246000000     0.570000000     1.209000000
O    -4.856000000    -0.052000000     2.048000000
O    -4.807000000     1.630000000     0.861000000
O    -9.549000000    -0.895000000    -0.552000000
H    -9.735000000    -0.232000000    -1.217000000
H    -8.693000000    -0.649000000    -0.201000000
O    -9.707000000     2.675000000     0.018000000
H    -9.253000000     3.499000000    -0.157000000
H    -9.101000000     2.179000000     0.569000000
O    -4.765000000    -2.715000000     6.530000000
H    -4.806000000    -2.125000000     5.776000000
H    -5.379000000    -2.340000000     7.161000000
O    -7.873000000     3.477000000     4.172000000
H    -8.727000000     3.330000000     4.577000000
H    -7.504000000     2.600000000     4.063000000
O    -6.520000000     1.005000000     4.185000000
H    -6.375000000     1.213000000     3.262000000
H    -5.695000000     0.615000000     4.475000000
O    -3.826000000     1.819000000     5.273000000
H    -3.143000000     2.447000000     5.041000000
H    -4.637000000     2.221000000     4.962000000
O    -3.878000000     0.604000000     7.751000000
H    -4.372000000    -0.194000000     7.938000000
H    -3.664000000     0.540000000     6.820000000
O    -6.931000000     3.280000000     0.932000000
H    -6.299000000     2.680000000     0.535000000
H    -6.411000000     3.809000000     1.538000000
O    -8.202000000     1.193000000     6.754000000
H    -7.596000000     1.350000000     6.030000000
H    -7.929000000     1.810000000     7.433000000
O    -5.251000000     6.328000000     1.925000000
H    -6.026000000     6.288000000     2.486000000
H    -4.747000000     5.548000000     2.157000000
O    -8.291000000     4.574000000    -1.145000000
H    -8.312000000     5.481000000    -0.839000000
H    -7.806000000     4.103000000    -0.467000000
O    -8.203000000    -1.289000000     3.708000000
H    -7.558000000    -1.652000000     3.101000000
H    -7.753000000    -0.555000000     4.125000000
O    -7.063000000    -0.104000000     0.481000000
H    -6.488000000     0.396000000     1.061000000
H    -6.753000000     0.104000000    -0.400000000
O    -7.870000000    -4.584000000     2.966000000
H    -7.453000000    -3.783000000     2.648000000
H    -8.568000000    -4.758000000     2.335000000
O    -6.186000000    -2.360000000     2.316000000
H    -5.996000000    -1.463000000     2.039000000
H    -5.328000000    -2.779000000     2.373000000
O    -0.045000000     1.651000000     3.410000000
H     0.248000000     0.899000000     3.925000000
H    -0.114000000     1.317000000     2.516000000
O    -4.332000000    -0.824000000     4.688000000
H    -4.386000000    -0.973000000     3.744000000
H    -3.786000000    -0.042000000     4.776000000
O    -2.150000000     3.447000000     4.100000000
H    -1.437000000     2.961000000     3.686000000
H    -1.712000000     4.075000000     4.674000000
O    -4.451000000     3.528000000     2.823000000
H    -4.184000000     2.913000000     2.140000000
H    -3.642000000     3.726000000     3.297000000
