215
-1425.56149
C    -4.073000000    -0.563000000    -3.081000000
H    -3.807000000    -1.603000000    -2.909000000
C    -3.145000000     0.403000000    -3.554000000
C    -3.647000000     1.737000000    -3.653000000
H    -2.944000000     2.523000000    -3.917000000
C    -1.744000000    -0.052000000    -3.822000000
O    -1.638000000    -1.345000000    -4.456000000
H    -1.136000000    -0.006000000    -2.906000000
O    -1.043000000     0.921000000    -4.655000000
C     0.260000000     1.329000000    -4.403000000
C     0.380000000     2.495000000    -3.693000000
H    -0.463000000     3.077000000    -3.330000000
C     1.662000000     2.761000000    -3.238000000
O     1.755000000     3.888000000    -2.405000000
C     2.728000000     1.956000000    -3.587000000
C     4.142000000     2.356000000    -3.098000000
H     4.895000000     1.940000000    -3.771000000
C     4.396000000     1.767000000    -1.694000000
C     4.976000000     0.508000000    -1.432000000
H     5.270000000    -0.046000000    -2.320000000
H     4.336000000     3.430000000    -3.067000000
C     2.635000000     0.841000000    -4.436000000
H     3.505000000     0.216000000    -4.619000000
C     1.346000000     0.442000000    -4.725000000
C     1.165000000    -0.945000000    -5.448000000
H     2.082000000    -1.199000000    -5.984000000
H     0.473000000    -0.932000000    -6.293000000
C     0.779000000    -1.981000000    -4.440000000
C     1.828000000    -2.780000000    -3.914000000
H     2.881000000    -2.622000000    -4.136000000
C    -0.555000000    -2.137000000    -3.972000000
C    -0.835000000    -3.124000000    -3.110000000
H    -1.855000000    -3.395000000    -2.851000000
C     0.201000000    -3.814000000    -2.502000000
O    -0.141000000    -4.721000000    -1.503000000
C    -0.007000000    -4.227000000    -0.135000000
C    -1.270000000    -4.528000000     0.634000000
C    -1.387000000    -4.412000000     2.021000000
H    -0.505000000    -4.190000000     2.616000000
C    -2.421000000    -4.765000000    -0.085000000
H    -2.393000000    -4.761000000    -1.171000000
O     1.098000000    -4.841000000     0.473000000
H     0.132000000    -3.142000000    -0.019000000
C     1.525000000    -3.712000000    -2.915000000
C     2.603000000    -4.550000000    -2.222000000
H     3.482000000    -4.705000000    -2.851000000
H     2.245000000    -5.580000000    -2.178000000
C     3.043000000    -4.071000000    -0.857000000
C     4.182000000    -3.284000000    -0.804000000
H     4.723000000    -3.083000000    -1.725000000
C     2.287000000    -4.246000000     0.357000000
C     2.726000000    -3.666000000     1.515000000
H     2.219000000    -3.659000000     2.477000000
C     3.769000000    -2.775000000     1.544000000
O     3.917000000    -1.980000000     2.577000000
C     3.391000000    -0.648000000     2.489000000
C     2.560000000    -0.173000000     3.705000000
C     1.596000000    -0.980000000     4.374000000
H     1.448000000    -2.010000000     4.058000000
C     2.801000000     1.088000000     4.290000000
H     3.567000000     1.729000000     3.859000000
O     4.472000000     0.292000000     2.246000000
H     2.801000000    -0.606000000     1.561000000
C     4.472000000    -2.540000000     0.324000000
C     5.587000000    -1.441000000     0.280000000
H     6.225000000    -1.667000000    -0.578000000
H     6.225000000    -1.477000000     1.165000000
C     5.014000000    -0.048000000    -0.092000000
C     4.604000000     0.807000000     0.958000000
C     4.035000000     2.070000000     0.747000000
H     3.752000000     2.678000000     1.602000000
C     3.936000000     2.498000000    -0.593000000
O     3.211000000     3.671000000    -0.710000000
C     1.808000000     3.728000000    -0.993000000
H     1.460000000     2.696000000    -0.835000000
C     0.890000000     4.650000000    -0.148000000
C    -0.513000000     4.810000000    -0.419000000
H    -0.876000000     4.486000000    -1.391000000
C     1.348000000     5.164000000     1.020000000
H     2.399000000     5.096000000     1.287000000
C     0.467000000     5.797000000     1.917000000
O     0.813000000     6.120000000     3.211000000
C    -0.893000000     5.902000000     1.638000000
H    -1.607000000     6.229000000     2.390000000
C    -1.396000000     5.455000000     0.454000000
O    -2.713000000     5.322000000     0.254000000
C    -3.339000000     5.336000000    -0.951000000
C    -3.979000000     4.251000000    -1.507000000
H    -3.624000000     3.321000000    -1.071000000
C    -3.634000000     6.626000000    -1.413000000
H    -3.155000000     7.528000000    -1.043000000
C    -4.456000000     6.786000000    -2.546000000
H    -4.673000000     7.785000000    -2.916000000
C    -4.996000000     5.642000000    -3.147000000
H    -5.630000000     5.827000000    -4.010000000
C    -4.793000000     4.373000000    -2.645000000
O    -5.327000000     3.301000000    -3.297000000
C    -4.889000000     2.043000000    -3.202000000
C    -5.799000000     1.136000000    -2.738000000
H    -6.753000000     1.457000000    -2.328000000
C    -5.333000000    -0.119000000    -2.584000000
O    -6.082000000    -1.050000000    -1.944000000
C    -6.031000000    -2.418000000    -2.071000000
C    -5.466000000    -3.214000000    -1.057000000
H    -5.012000000    -2.794000000    -0.163000000
C    -6.612000000    -3.053000000    -3.190000000
H    -7.092000000    -2.472000000    -3.973000000
C    -6.686000000    -4.458000000    -3.283000000
H    -7.141000000    -4.940000000    -4.145000000
C    -6.043000000    -5.225000000    -2.256000000
H    -6.036000000    -6.306000000    -2.367000000
C    -5.414000000    -4.622000000    -1.146000000
O    -4.815000000    -5.379000000    -0.132000000
C    -3.647000000    -5.002000000     0.545000000
C    -3.689000000    -5.042000000     1.952000000
H    -4.650000000    -5.142000000     2.451000000
C    -2.608000000    -4.687000000     2.717000000
O    -2.762000000    -4.440000000     4.096000000
C    -1.766000000    -4.221000000     4.961000000
C    -1.440000000    -2.928000000     5.364000000
H    -2.160000000    -2.154000000     5.113000000
C    -0.775000000    -5.245000000     5.220000000
H    -0.893000000    -6.278000000     4.903000000
C     0.419000000    -4.831000000     5.899000000
H     1.092000000    -5.668000000     6.068000000
C     0.763000000    -3.540000000     6.182000000
H     1.679000000    -3.306000000     6.718000000
C    -0.225000000    -2.571000000     5.931000000
O     0.112000000    -1.246000000     6.281000000
C     0.851000000    -0.488000000     5.481000000
C     1.103000000     0.768000000     5.974000000
H     0.689000000     1.084000000     6.928000000
C     2.077000000     1.579000000     5.358000000
O     2.429000000     2.657000000     6.078000000
C     2.662000000     3.881000000     5.386000000
C     3.836000000     4.538000000     5.470000000
H     4.654000000     4.106000000     6.042000000
C     4.123000000     5.620000000     4.675000000
H     5.032000000     6.215000000     4.708000000
C     3.112000000     6.155000000     3.804000000
H     3.250000000     7.004000000     3.138000000
C     1.810000000     5.540000000     3.848000000
C     1.613000000     4.454000000     4.706000000
H     0.631000000     3.988000000     4.695000000
C    -2.930000000     0.891000000     0.138000000
H    -3.826000000     1.422000000    -0.170000000
C    -1.638000000     1.157000000    -0.310000000
H    -1.512000000     1.992000000    -0.994000000
C    -0.566000000     0.509000000     0.179000000
H     0.428000000     0.862000000    -0.104000000
C    -0.729000000    -0.515000000     1.064000000
H     0.149000000    -1.016000000     1.465000000
C    -1.980000000    -0.794000000     1.473000000
H    -2.072000000    -1.636000000     2.153000000
C    -3.096000000    -0.119000000     1.045000000
C    -4.457000000    -0.342000000     1.695000000
O    -4.569000000    -1.008000000     2.683000000
O    -5.334000000     0.408000000     1.556000000
O    -4.530000000     5.441000000     4.012000000
H    -4.210000000     4.680000000     3.528000000
H    -5.401000000     5.185000000     4.314000000
O    -8.569000000    -1.131000000    -0.311000000
H    -8.105000000    -1.701000000    -0.924000000
H    -9.490000000    -1.371000000    -0.411000000
O    -9.578000000     3.041000000     0.183000000
H    -9.895000000     3.466000000     0.980000000
H    -8.949000000     2.389000000     0.494000000
O    -6.033000000    -1.520000000     6.694000000
H    -6.078000000    -1.942000000     5.836000000
H    -5.237000000    -1.871000000     7.093000000
O    -9.383000000    -2.485000000     3.323000000
H    -9.057000000    -2.935000000     4.102000000
H    -8.596000000    -2.158000000     2.888000000
O    -6.982000000     3.319000000     4.025000000
H    -7.700000000     3.607000000     4.589000000
H    -6.915000000     2.377000000     4.185000000
O    -5.325000000     2.223000000     7.176000000
H    -4.540000000     2.205000000     7.723000000
H    -5.137000000     1.609000000     6.466000000
O    -4.956000000     3.055000000     1.763000000
H    -5.025000000     2.113000000     1.603000000
H    -5.652000000     3.243000000     2.392000000
O    -7.565000000    -4.597000000     2.236000000
H    -7.659000000    -4.061000000     3.024000000
H    -6.973000000    -4.096000000     1.676000000
O    -2.471000000     3.329000000     2.895000000
H    -3.297000000     3.086000000     2.477000000
H    -2.069000000     3.950000000     2.287000000
O    -6.944000000     0.072000000     4.378000000
H    -6.087000000     0.024000000     4.803000000
H    -6.891000000    -0.562000000     3.663000000
O    -7.655000000    -3.841000000     5.100000000
H    -7.656000000    -3.718000000     6.049000000
H    -6.738000000    -3.737000000     4.846000000
O    -7.851000000     1.106000000     1.035000000
H    -6.947000000     0.839000000     1.199000000
H    -8.189000000     0.448000000     0.427000000
O    -7.152000000    -1.727000000     1.949000000
H    -6.365000000    -1.196000000     2.069000000
H    -7.479000000    -1.480000000     1.084000000
O    -9.238000000     1.146000000     3.310000000
H    -8.723000000     1.226000000     2.507000000
H    -8.737000000     0.539000000     3.855000000
O    -4.236000000     0.387000000     4.934000000
H    -4.283000000    -0.239000000     4.212000000
H    -3.508000000     0.964000000     4.705000000
O    -5.213000000    -3.102000000     4.236000000
H    -5.023000000    -2.267000000     3.808000000
H    -4.353000000    -3.471000000     4.432000000
O    -1.437000000     3.334000000     6.788000000
H    -1.493000000     2.610000000     6.163000000
H    -2.028000000     4.000000000     6.437000000
O    -1.501000000     1.549000000     4.535000000
H    -0.620000000     1.564000000     4.162000000
H    -1.992000000     2.186000000     4.017000000
