215
-1470.63620
C    -4.472000000    -0.794000000    -3.416000000
H    -4.331000000    -1.837000000    -3.687000000
C    -3.442000000     0.161000000    -3.475000000
C    -3.649000000     1.493000000    -3.164000000
H    -2.808000000     2.176000000    -3.075000000
C    -2.032000000    -0.331000000    -3.856000000
O    -1.978000000    -1.562000000    -4.654000000
H    -1.403000000    -0.587000000    -2.991000000
O    -1.363000000     0.702000000    -4.634000000
C    -0.040000000     1.042000000    -4.352000000
C     0.129000000     2.250000000    -3.619000000
H    -0.701000000     2.877000000    -3.302000000
C     1.497000000     2.618000000    -3.287000000
O     1.578000000     3.825000000    -2.637000000
C     2.597000000     1.780000000    -3.702000000
C     4.038000000     2.041000000    -3.335000000
H     4.720000000     1.566000000    -4.042000000
C     4.426000000     1.789000000    -1.941000000
C     4.927000000     0.532000000    -1.620000000
H     5.209000000    -0.244000000    -2.328000000
H     4.075000000     3.119000000    -3.507000000
C     2.327000000     0.604000000    -4.391000000
H     3.116000000    -0.133000000    -4.514000000
C     1.025000000     0.204000000    -4.710000000
C     0.781000000    -1.143000000    -5.381000000
H     1.732000000    -1.387000000    -5.860000000
H     0.160000000    -1.052000000    -6.275000000
C     0.353000000    -2.289000000    -4.485000000
C     1.287000000    -2.955000000    -3.727000000
H     2.316000000    -2.620000000    -3.824000000
C    -0.998000000    -2.452000000    -4.264000000
C    -1.405000000    -3.272000000    -3.219000000
H    -2.442000000    -3.211000000    -2.901000000
C    -0.471000000    -4.040000000    -2.570000000
O    -0.934000000    -4.640000000    -1.394000000
C    -0.683000000    -3.935000000    -0.146000000
C    -1.891000000    -4.164000000     0.787000000
C    -1.668000000    -4.261000000     2.145000000
H    -0.630000000    -4.293000000     2.466000000
C    -3.152000000    -4.117000000     0.318000000
H    -3.341000000    -3.947000000    -0.738000000
O     0.542000000    -4.446000000     0.526000000
H    -0.533000000    -2.860000000    -0.324000000
C     0.872000000    -3.895000000    -2.822000000
C     1.931000000    -4.578000000    -1.991000000
H     2.786000000    -4.843000000    -2.616000000
H     1.528000000    -5.490000000    -1.545000000
C     2.325000000    -3.689000000    -0.904000000
C     3.522000000    -2.908000000    -0.975000000
H     4.031000000    -2.992000000    -1.932000000
C     1.712000000    -3.782000000     0.370000000
C     2.264000000    -3.138000000     1.515000000
H     1.791000000    -3.298000000     2.481000000
C     3.386000000    -2.385000000     1.354000000
O     3.909000000    -1.652000000     2.417000000
C     3.493000000    -0.297000000     2.566000000
C     3.060000000     0.014000000     3.990000000
C     2.259000000    -0.952000000     4.654000000
H     2.107000000    -1.896000000     4.137000000
C     2.991000000     1.313000000     4.488000000
H     3.581000000     2.028000000     3.920000000
O     4.565000000     0.622000000     2.143000000
H     2.589000000    -0.081000000     1.978000000
C     4.063000000    -2.271000000     0.129000000
C     5.314000000    -1.342000000    -0.011000000
H     5.951000000    -1.650000000    -0.843000000
H     5.795000000    -1.341000000     0.970000000
C     4.996000000     0.156000000    -0.249000000
C     4.650000000     1.034000000     0.796000000
C     4.363000000     2.345000000     0.457000000
H     4.054000000     3.078000000     1.198000000
C     4.148000000     2.716000000    -0.917000000
O     3.490000000     3.888000000    -1.113000000
C     2.035000000     3.759000000    -1.250000000
H     1.799000000     2.739000000    -0.912000000
C     1.181000000     4.691000000    -0.311000000
C    -0.139000000     4.979000000    -0.626000000
H    -0.561000000     4.595000000    -1.551000000
C     1.712000000     5.196000000     0.900000000
H     2.717000000     4.867000000     1.151000000
C     0.951000000     5.973000000     1.817000000
O     1.504000000     6.360000000     3.021000000
C    -0.443000000     6.197000000     1.509000000
H    -1.028000000     6.734000000     2.250000000
C    -0.995000000     5.749000000     0.296000000
O    -2.379000000     5.881000000     0.046000000
C    -2.914000000     5.616000000    -1.231000000
C    -3.785000000     4.544000000    -1.340000000
H    -4.019000000     4.002000000    -0.428000000
C    -2.495000000     6.303000000    -2.384000000
H    -1.790000000     7.116000000    -2.228000000
C    -3.088000000     5.987000000    -3.625000000
H    -2.859000000     6.651000000    -4.455000000
C    -4.088000000     4.979000000    -3.731000000
H    -4.476000000     4.770000000    -4.724000000
C    -4.389000000     4.235000000    -2.557000000
O    -5.306000000     3.215000000    -2.628000000
C    -4.976000000     1.880000000    -2.868000000
C    -6.041000000     0.934000000    -2.755000000
H    -7.092000000     1.175000000    -2.616000000
C    -5.699000000    -0.358000000    -3.020000000
O    -6.672000000    -1.307000000    -3.034000000
C    -6.484000000    -2.573000000    -2.464000000
C    -6.201000000    -2.667000000    -1.169000000
H    -6.057000000    -1.801000000    -0.528000000
C    -6.633000000    -3.692000000    -3.212000000
H    -6.834000000    -3.687000000    -4.281000000
C    -6.411000000    -4.946000000    -2.649000000
H    -6.407000000    -5.877000000    -3.210000000
C    -6.025000000    -5.092000000    -1.297000000
H    -5.937000000    -6.023000000    -0.742000000
C    -5.951000000    -3.889000000    -0.564000000
O    -5.588000000    -3.767000000     0.797000000
C    -4.291000000    -4.070000000     1.251000000
C    -4.052000000    -4.389000000     2.603000000
H    -4.873000000    -4.429000000     3.315000000
C    -2.706000000    -4.483000000     3.073000000
O    -2.445000000    -4.557000000     4.441000000
C    -1.247000000    -4.283000000     5.070000000
C    -0.898000000    -3.005000000     5.423000000
H    -1.442000000    -2.089000000     5.206000000
C    -0.437000000    -5.380000000     5.372000000
H    -0.864000000    -6.350000000     5.129000000
C     0.833000000    -5.197000000     5.948000000
H     1.542000000    -6.018000000     6.026000000
C     1.218000000    -3.887000000     6.309000000
H     2.227000000    -3.791000000     6.701000000
C     0.345000000    -2.815000000     6.106000000
O     0.747000000    -1.541000000     6.436000000
C     1.550000000    -0.652000000     5.827000000
C     1.641000000     0.635000000     6.342000000
H     1.070000000     0.765000000     7.258000000
C     2.397000000     1.628000000     5.691000000
O     2.388000000     2.903000000     6.212000000
C     2.774000000     3.958000000     5.440000000
C     4.148000000     4.345000000     5.485000000
H     4.870000000     3.785000000     6.074000000
C     4.639000000     5.452000000     4.731000000
H     5.691000000     5.722000000     4.727000000
C     3.743000000     6.048000000     3.817000000
H     4.042000000     6.801000000     3.092000000
C     2.364000000     5.681000000     3.792000000
C     1.969000000     4.560000000     4.506000000
H     0.911000000     4.327000000     4.595000000
C    -2.790000000     0.295000000     0.196000000
H    -3.782000000     0.672000000    -0.039000000
C    -1.631000000     0.779000000    -0.379000000
H    -1.734000000     1.543000000    -1.145000000
C    -0.407000000     0.328000000     0.108000000
H     0.494000000     0.475000000    -0.500000000
C    -0.279000000    -0.548000000     1.150000000
H     0.706000000    -0.846000000     1.497000000
C    -1.394000000    -0.940000000     1.751000000
H    -1.342000000    -1.443000000     2.713000000
C    -2.675000000    -0.467000000     1.363000000
C    -3.910000000    -0.783000000     2.174000000
O    -3.745000000    -1.404000000     3.220000000
O    -5.035000000    -0.381000000     1.902000000
O    -8.791000000    -1.481000000     1.274000000
H    -8.566000000    -1.621000000     0.354000000
H    -9.433000000    -2.164000000     1.470000000
O    -7.171000000     3.483000000     0.251000000
H    -7.628000000     3.625000000    -0.578000000
H    -7.367000000     2.574000000     0.480000000
O    -3.766000000    -1.343000000     8.129000000
H    -4.019000000    -1.770000000     7.311000000
H    -3.398000000    -2.047000000     8.663000000
O    -8.850000000    -0.514000000     4.424000000
H    -8.429000000     0.097000000     5.028000000
H    -8.457000000    -1.362000000     4.629000000
O    -6.015000000     4.254000000     3.969000000
H    -6.708000000     4.811000000     3.615000000
H    -6.465000000     3.453000000     4.238000000
O    -4.252000000     3.857000000     6.045000000
H    -3.567000000     3.700000000     5.395000000
H    -5.019000000     4.108000000     5.530000000
O    -6.999000000    -0.501000000     6.988000000
H    -6.156000000    -0.462000000     6.536000000
H    -6.890000000    -1.195000000     7.639000000
O    -4.443000000     2.868000000     1.797000000
H    -5.271000000     3.219000000     2.127000000
H    -4.636000000     1.954000000     1.591000000
O    -8.041000000    -4.605000000     4.072000000
H    -8.031000000    -4.385000000     5.003000000
H    -7.557000000    -3.894000000     3.653000000
O    -1.916000000     2.396000000     2.615000000
H    -2.818000000     2.622000000     2.389000000
H    -1.536000000     2.077000000     1.796000000
O    -6.867000000     1.757000000     4.380000000
H    -6.033000000     1.372000000     4.651000000
H    -7.083000000     1.310000000     3.562000000
O    -5.902000000    -4.712000000     7.141000000
H    -5.749000000    -5.654000000     7.069000000
H    -5.162000000    -4.314000000     6.684000000
O    -6.820000000    -6.220000000     1.807000000
H    -6.630000000    -5.386000000     1.378000000
H    -7.063000000    -5.980000000     2.701000000
O    -7.255000000     0.854000000     1.594000000
H    -6.437000000     0.358000000     1.598000000
H    -7.938000000     0.191000000     1.688000000
O    -6.790000000    -2.246000000     3.214000000
H    -6.188000000    -1.738000000     2.671000000
H    -7.657000000    -2.049000000     2.860000000
O    -1.876000000     4.313000000     4.418000000
H    -1.837000000     3.670000000     3.710000000
H    -2.121000000     5.131000000     3.986000000
O    -4.716000000     0.025000000     5.298000000
H    -4.544000000    -0.477000000     4.501000000
H    -3.870000000     0.409000000     5.527000000
O    -4.208000000    -2.875000000     5.912000000
H    -4.543000000    -2.381000000     5.164000000
H    -3.754000000    -3.622000000     5.523000000
O    -1.791000000     0.500000000     4.756000000
H    -1.602000000     1.153000000     4.082000000
H    -2.121000000    -0.256000000     4.271000000
