215
-1457.06106
C    -4.118000000    -0.298000000    -3.230000000
H    -3.963000000    -1.366000000    -3.355000000
C    -3.122000000     0.641000000    -3.470000000
C    -3.383000000     2.018000000    -3.318000000
H    -2.591000000     2.716000000    -3.579000000
C    -1.754000000     0.063000000    -3.890000000
O    -1.826000000    -1.253000000    -4.509000000
H    -1.266000000     0.021000000    -2.905000000
O    -1.021000000     0.951000000    -4.664000000
C     0.327000000     1.204000000    -4.323000000
C     0.653000000     2.378000000    -3.661000000
H    -0.072000000     3.177000000    -3.524000000
C     2.006000000     2.554000000    -3.263000000
O     2.270000000     3.745000000    -2.604000000
C     3.008000000     1.538000000    -3.553000000
C     4.425000000     1.770000000    -3.071000000
H     5.068000000     1.200000000    -3.744000000
C     4.510000000     1.351000000    -1.625000000
C     4.882000000     0.080000000    -1.387000000
H     5.047000000    -0.576000000    -2.238000000
H     4.694000000     2.827000000    -3.024000000
C     2.589000000     0.417000000    -4.221000000
H     3.381000000    -0.273000000    -4.501000000
C     1.279000000     0.206000000    -4.552000000
C     0.953000000    -1.069000000    -5.328000000
H     1.908000000    -1.428000000    -5.717000000
H     0.363000000    -0.871000000    -6.225000000
C     0.416000000    -2.119000000    -4.387000000
C     1.311000000    -3.011000000    -3.694000000
H     2.380000000    -2.957000000    -3.888000000
C    -0.954000000    -2.210000000    -4.025000000
C    -1.384000000    -3.134000000    -3.052000000
H    -2.399000000    -3.145000000    -2.663000000
C    -0.483000000    -4.017000000    -2.441000000
O    -1.039000000    -4.722000000    -1.393000000
C    -0.707000000    -4.085000000    -0.115000000
C    -1.976000000    -4.156000000     0.765000000
C    -1.960000000    -4.212000000     2.139000000
H    -0.972000000    -4.187000000     2.592000000
C    -3.267000000    -4.269000000     0.142000000
H    -3.387000000    -4.452000000    -0.922000000
O     0.443000000    -4.754000000     0.498000000
H    -0.519000000    -3.009000000    -0.240000000
C     0.870000000    -3.989000000    -2.786000000
C     1.935000000    -4.804000000    -2.037000000
H     2.788000000    -4.974000000    -2.697000000
H     1.547000000    -5.802000000    -1.823000000
C     2.398000000    -4.101000000    -0.842000000
C     3.642000000    -3.336000000    -0.861000000
H     4.130000000    -3.181000000    -1.820000000
C     1.650000000    -4.140000000     0.336000000
C     2.180000000    -3.550000000     1.480000000
H     1.632000000    -3.590000000     2.418000000
C     3.398000000    -2.865000000     1.522000000
O     3.703000000    -2.146000000     2.622000000
C     3.422000000    -0.744000000     2.631000000
C     2.901000000    -0.355000000     3.997000000
C     1.900000000    -1.167000000     4.580000000
H     1.423000000    -2.025000000     4.114000000
C     3.367000000     0.747000000     4.673000000
H     4.275000000     1.231000000     4.324000000
O     4.607000000    -0.010000000     2.210000000
H     2.715000000    -0.523000000     1.817000000
C     4.141000000    -2.723000000     0.311000000
C     5.397000000    -1.906000000     0.230000000
H     5.934000000    -2.264000000    -0.651000000
H     6.134000000    -2.048000000     1.023000000
C     5.009000000    -0.433000000    -0.081000000
C     4.700000000     0.443000000     0.940000000
C     4.341000000     1.763000000     0.739000000
H     4.140000000     2.440000000     1.565000000
C     4.298000000     2.246000000    -0.572000000
O     3.797000000     3.535000000    -0.753000000
C     2.432000000     3.573000000    -1.162000000
H     2.028000000     2.595000000    -0.864000000
C     1.589000000     4.614000000    -0.328000000
C     0.516000000     5.322000000    -0.940000000
H     0.379000000     5.289000000    -2.018000000
C     1.637000000     4.605000000     1.047000000
H     2.385000000     3.954000000     1.494000000
C     0.754000000     5.379000000     1.831000000
O     0.776000000     5.404000000     3.243000000
C    -0.273000000     6.068000000     1.152000000
H    -1.010000000     6.570000000     1.773000000
C    -0.456000000     5.953000000    -0.199000000
O    -1.461000000     6.646000000    -0.802000000
C    -2.347000000     6.213000000    -1.773000000
C    -3.069000000     5.028000000    -1.654000000
H    -2.966000000     4.347000000    -0.814000000
C    -2.549000000     7.121000000    -2.778000000
H    -1.972000000     8.032000000    -2.643000000
C    -3.550000000     6.881000000    -3.763000000
H    -3.585000000     7.522000000    -4.641000000
C    -4.288000000     5.712000000    -3.596000000
H    -5.019000000     5.492000000    -4.370000000
C    -4.041000000     4.780000000    -2.547000000
O    -4.890000000     3.742000000    -2.488000000
C    -4.629000000     2.437000000    -2.818000000
C    -5.559000000     1.491000000    -2.653000000
H    -6.478000000     1.838000000    -2.189000000
C    -5.383000000     0.109000000    -2.935000000
O    -6.427000000    -0.815000000    -2.862000000
C    -6.402000000    -2.120000000    -2.554000000
C    -5.874000000    -2.578000000    -1.352000000
H    -5.312000000    -1.881000000    -0.736000000
C    -6.785000000    -3.009000000    -3.533000000
H    -7.098000000    -2.608000000    -4.493000000
C    -6.824000000    -4.366000000    -3.190000000
H    -7.224000000    -5.008000000    -3.971000000
C    -6.463000000    -4.854000000    -1.880000000
H    -6.338000000    -5.883000000    -1.553000000
C    -5.936000000    -3.944000000    -0.962000000
O    -5.655000000    -4.319000000     0.282000000
C    -4.439000000    -4.202000000     0.873000000
C    -4.364000000    -4.124000000     2.323000000
H    -5.246000000    -4.144000000     2.958000000
C    -3.117000000    -4.212000000     2.907000000
O    -3.049000000    -4.301000000     4.242000000
C    -1.888000000    -4.123000000     4.934000000
C    -1.346000000    -2.847000000     5.234000000
H    -1.966000000    -1.980000000     5.025000000
C    -1.165000000    -5.287000000     5.378000000
H    -1.445000000    -6.286000000     5.056000000
C    -0.023000000    -5.119000000     6.164000000
H     0.427000000    -5.993000000     6.629000000
C     0.505000000    -3.813000000     6.464000000
H     1.381000000    -3.634000000     7.081000000
C    -0.165000000    -2.701000000     5.978000000
O     0.201000000    -1.408000000     6.396000000
C     1.276000000    -0.740000000     5.777000000
C     1.704000000     0.472000000     6.348000000
H     1.246000000     0.787000000     7.282000000
C     2.737000000     1.198000000     5.781000000
O     3.068000000     2.462000000     6.278000000
C     2.921000000     3.642000000     5.601000000
C     3.949000000     4.542000000     5.741000000
H     4.738000000     4.380000000     6.471000000
C     3.969000000     5.653000000     4.936000000
H     4.810000000     6.336000000     4.856000000
C     2.923000000     5.948000000     4.043000000
H     2.958000000     6.814000000     3.387000000
C     1.825000000     5.087000000     4.052000000
C     1.845000000     3.923000000     4.776000000
H     0.966000000     3.295000000     4.891000000
C    -2.675000000     0.299000000     0.257000000
H    -3.587000000     0.653000000    -0.217000000
C    -1.397000000     0.554000000    -0.214000000
H    -1.333000000     1.139000000    -1.127000000
C    -0.271000000    -0.012000000     0.361000000
H     0.753000000     0.165000000     0.016000000
C    -0.431000000    -0.839000000     1.522000000
H     0.438000000    -1.215000000     2.057000000
C    -1.673000000    -0.863000000     2.143000000
H    -1.827000000    -1.385000000     3.084000000
C    -2.837000000    -0.415000000     1.467000000
C    -4.284000000    -0.547000000     2.016000000
O    -4.373000000    -0.638000000     3.232000000
O    -5.242000000    -0.512000000     1.237000000
O    -8.781000000    -3.133000000     0.487000000
H    -9.678000000    -3.328000000     0.760000000
H    -8.880000000    -2.492000000    -0.217000000
O    -9.225000000     2.906000000    -0.221000000
H    -9.800000000     2.320000000    -0.712000000
H    -8.561000000     2.330000000     0.157000000
O    -4.185000000    -1.505000000     8.542000000
H    -4.354000000    -1.402000000     7.605000000
H    -4.766000000    -2.216000000     8.813000000
O    -7.022000000    -0.489000000     4.948000000
H    -6.663000000    -1.065000000     4.273000000
H    -6.417000000    -0.576000000     5.684000000
O    -5.600000000     3.922000000     5.157000000
H    -5.097000000     3.124000000     4.998000000
H    -5.726000000     4.304000000     4.289000000
O    -5.557000000     1.253000000     7.548000000
H    -5.242000000     1.189000000     6.646000000
H    -4.761000000     1.324000000     8.075000000
O    -4.362000000     3.231000000     1.699000000
H    -4.770000000     2.365000000     1.688000000
H    -5.089000000     3.835000000     1.850000000
O    -1.562000000     2.946000000     2.305000000
H    -0.887000000     2.681000000     1.680000000
H    -2.351000000     3.053000000     1.774000000
O    -6.822000000     1.910000000     2.757000000
H    -6.477000000     1.541000000     1.944000000
H    -6.939000000     1.154000000     3.333000000
O    -6.068000000    -3.898000000     5.538000000
H    -6.950000000    -3.607000000     5.304000000
H    -6.210000000    -4.627000000     6.142000000
O    -9.213000000     0.875000000     5.339000000
H    -8.759000000     1.710000000     5.224000000
H    -8.656000000     0.236000000     4.893000000
O    -7.803000000     0.473000000     0.251000000
H    -7.110000000    -0.102000000     0.576000000
H    -8.187000000    -0.005000000    -0.484000000
O    -7.444000000    -1.405000000     2.276000000
H    -6.586000000    -1.071000000     2.016000000
H    -7.716000000    -1.963000000     1.547000000
O    -2.752000000     5.646000000     3.829000000
H    -3.386000000     5.790000000     3.127000000
H    -2.515000000     4.721000000     3.752000000
O    -4.310000000     1.522000000     4.938000000
H    -4.523000000     0.745000000     4.421000000
H    -3.413000000     1.740000000     4.682000000
O    -7.934000000    -4.261000000     3.306000000
H    -7.728000000    -3.650000000     2.599000000
H    -7.829000000    -5.127000000     2.913000000
O    -4.520000000    -1.686000000     5.745000000
H    -4.268000000    -1.624000000     4.824000000
H    -4.936000000    -2.544000000     5.822000000
O    -1.574000000     2.473000000     7.248000000
H    -1.703000000     2.255000000     6.325000000
H    -2.155000000     1.876000000     7.719000000
O    -1.170000000     1.529000000     4.526000000
H    -0.860000000     2.183000000     3.900000000
H    -1.486000000     0.808000000     3.981000000
