215
-1468.40356
C    -3.589000000     0.478000000    -4.080000000
H    -3.982000000    -0.528000000    -3.949000000
C    -2.186000000     0.719000000    -4.136000000
C    -1.756000000     2.028000000    -4.161000000
H    -0.676000000     2.124000000    -4.089000000
C    -1.184000000    -0.466000000    -4.002000000
O    -1.872000000    -1.647000000    -4.442000000
H    -0.932000000    -0.511000000    -2.932000000
O    -0.103000000    -0.159000000    -4.873000000
C     1.088000000    -0.711000000    -4.363000000
C     1.931000000     0.293000000    -3.966000000
H     1.670000000     1.348000000    -3.989000000
C     3.117000000    -0.091000000    -3.309000000
O     3.790000000     1.043000000    -2.814000000
C     3.548000000    -1.403000000    -3.201000000
C     4.781000000    -1.757000000    -2.378000000
H     5.206000000    -2.733000000    -2.619000000
C     4.537000000    -1.748000000    -0.881000000
C     4.216000000    -2.934000000    -0.259000000
H     4.003000000    -3.903000000    -0.703000000
H     5.589000000    -1.068000000    -2.631000000
C     2.688000000    -2.371000000    -3.663000000
H     2.885000000    -3.425000000    -3.480000000
C     1.473000000    -2.066000000    -4.206000000
C     0.523000000    -3.145000000    -4.564000000
H     1.106000000    -4.057000000    -4.707000000
H    -0.019000000    -2.951000000    -5.492000000
C    -0.514000000    -3.466000000    -3.538000000
C    -0.326000000    -4.430000000    -2.545000000
H     0.532000000    -5.096000000    -2.506000000
C    -1.647000000    -2.672000000    -3.511000000
C    -2.660000000    -2.935000000    -2.589000000
H    -3.614000000    -2.422000000    -2.679000000
C    -2.415000000    -3.727000000    -1.505000000
O    -3.372000000    -3.705000000    -0.470000000
C    -2.909000000    -3.052000000     0.734000000
C    -4.006000000    -2.118000000     1.258000000
C    -3.806000000    -1.339000000     2.419000000
H    -2.995000000    -1.578000000     3.102000000
C    -5.116000000    -1.717000000     0.475000000
H    -5.354000000    -2.303000000    -0.409000000
O    -2.316000000    -3.896000000     1.755000000
H    -2.118000000    -2.343000000     0.447000000
C    -1.260000000    -4.517000000    -1.475000000
C    -0.943000000    -5.505000000    -0.386000000
H    -0.242000000    -6.236000000    -0.794000000
H    -1.803000000    -6.094000000    -0.061000000
C    -0.253000000    -4.798000000     0.814000000
C     1.153000000    -4.706000000     0.764000000
H     1.671000000    -5.234000000    -0.033000000
C    -0.940000000    -4.125000000     1.820000000
C    -0.225000000    -3.499000000     2.843000000
H    -0.813000000    -3.037000000     3.632000000
C     1.149000000    -3.270000000     2.776000000
O     1.793000000    -2.594000000     3.800000000
C     2.433000000    -1.354000000     3.512000000
C     2.234000000    -0.214000000     4.496000000
C     0.936000000    -0.114000000     5.064000000
H     0.143000000    -0.845000000     4.931000000
C     3.131000000     0.864000000     4.644000000
H     4.099000000     0.867000000     4.149000000
O     3.886000000    -1.656000000     3.216000000
H     1.982000000    -0.971000000     2.584000000
C     1.839000000    -3.995000000     1.766000000
C     3.332000000    -4.100000000     1.706000000
H     3.659000000    -5.006000000     1.192000000
H     3.580000000    -4.194000000     2.766000000
C     4.013000000    -2.917000000     1.093000000
C     4.209000000    -1.739000000     1.849000000
C     4.618000000    -0.543000000     1.223000000
H     4.663000000     0.393000000     1.774000000
C     4.714000000    -0.539000000    -0.150000000
O     4.854000000     0.681000000    -0.743000000
C     3.680000000     1.232000000    -1.400000000
H     2.772000000     0.739000000    -1.022000000
C     3.483000000     2.726000000    -1.046000000
C     2.714000000     3.563000000    -1.896000000
H     2.317000000     3.179000000    -2.832000000
C     3.994000000     3.251000000     0.174000000
H     4.640000000     2.726000000     0.872000000
C     3.545000000     4.567000000     0.593000000
O     3.871000000     5.244000000     1.742000000
C     2.866000000     5.358000000    -0.344000000
H     2.510000000     6.356000000    -0.102000000
C     2.500000000     4.887000000    -1.543000000
O     1.897000000     5.808000000    -2.333000000
C     1.226000000     5.469000000    -3.544000000
C    -0.162000000     5.291000000    -3.484000000
H    -0.646000000     5.441000000    -2.522000000
C     1.920000000     5.070000000    -4.637000000
H     2.973000000     5.258000000    -4.828000000
C     1.259000000     4.512000000    -5.732000000
H     1.761000000     4.086000000    -6.598000000
C    -0.116000000     4.276000000    -5.666000000
H    -0.665000000     3.934000000    -6.539000000
C    -0.851000000     4.710000000    -4.540000000
O    -2.156000000     4.369000000    -4.332000000
C    -2.672000000     3.108000000    -4.295000000
C    -4.028000000     2.946000000    -4.311000000
H    -4.635000000     3.848000000    -4.295000000
C    -4.486000000     1.619000000    -4.178000000
O    -5.901000000     1.437000000    -4.112000000
C    -6.422000000     0.435000000    -3.344000000
C    -6.405000000     0.564000000    -1.957000000
H    -5.835000000     1.391000000    -1.542000000
C    -7.251000000    -0.568000000    -3.959000000
H    -7.270000000    -0.707000000    -5.037000000
C    -7.986000000    -1.415000000    -3.189000000
H    -8.767000000    -2.068000000    -3.569000000
C    -7.787000000    -1.442000000    -1.835000000
H    -8.339000000    -2.119000000    -1.188000000
C    -7.056000000    -0.465000000    -1.230000000
O    -7.124000000    -0.481000000     0.125000000
C    -6.048000000    -0.787000000     0.912000000
C    -5.941000000    -0.226000000     2.160000000
H    -6.761000000     0.380000000     2.537000000
C    -4.795000000    -0.529000000     2.894000000
O    -4.649000000     0.052000000     4.116000000
C    -3.755000000    -0.156000000     5.159000000
C    -2.584000000     0.558000000     5.413000000
H    -2.402000000     1.458000000     4.831000000
C    -4.082000000    -1.171000000     6.134000000
H    -5.020000000    -1.713000000     6.043000000
C    -3.175000000    -1.581000000     7.096000000
H    -3.409000000    -2.341000000     7.837000000
C    -1.944000000    -0.901000000     7.201000000
H    -1.140000000    -1.179000000     7.878000000
C    -1.672000000     0.214000000     6.387000000
O    -0.598000000     1.006000000     6.594000000
C     0.612000000     0.977000000     5.935000000
C     1.613000000     1.882000000     6.219000000
H     1.412000000     2.650000000     6.962000000
C     2.840000000     1.871000000     5.586000000
O     3.828000000     2.797000000     5.888000000
C     4.429000000     3.508000000     4.870000000
C     5.768000000     3.829000000     5.056000000
H     6.271000000     3.508000000     5.964000000
C     6.461000000     4.677000000     4.196000000
H     7.409000000     5.117000000     4.494000000
C     5.774000000     5.137000000     3.093000000
H     6.311000000     5.798000000     2.418000000
C     4.506000000     4.735000000     2.820000000
C     3.773000000     3.978000000     3.764000000
H     2.715000000     3.736000000     3.698000000
C    -0.629000000     1.798000000     2.402000000
H    -0.777000000     2.191000000     3.404000000
C    -0.578000000     0.409000000     2.224000000
H    -0.692000000    -0.293000000     3.045000000
C    -0.390000000    -0.092000000     0.998000000
H    -0.187000000    -1.180000000     0.918000000
C    -0.186000000     0.802000000    -0.134000000
H     0.026000000     0.374000000    -1.110000000
C    -0.188000000     2.169000000     0.050000000
H     0.050000000     2.886000000    -0.731000000
C    -0.364000000     2.686000000     1.338000000
C    -0.402000000     4.161000000     1.447000000
O    -0.543000000     4.810000000     0.413000000
O    -0.645000000     4.676000000     2.538000000
O    -1.948000000     7.416000000     2.472000000
H    -1.353000000     8.118000000     2.736000000
H    -1.383000000     6.649000000     2.371000000
O    -6.323000000     3.612000000     3.350000000
H    -5.752000000     2.845000000     3.410000000
H    -6.631000000     3.610000000     2.443000000
O     1.828000000     7.804000000     2.830000000
H     2.686000000     7.463000000     2.579000000
H     2.017000000     8.647000000     3.242000000
O    -3.204000000     4.963000000     6.066000000
H    -2.817000000     5.837000000     6.109000000
H    -2.919000000     4.535000000     6.873000000
O     2.503000000     5.308000000     7.276000000
H     2.563000000     5.029000000     6.362000000
H     1.820000000     4.752000000     7.651000000
O    -4.671000000     6.517000000     0.368000000
H    -4.073000000     6.590000000     1.112000000
H    -4.147000000     6.110000000    -0.322000000
O    -2.201000000     7.616000000     6.624000000
H    -2.630000000     7.660000000     5.770000000
H    -1.603000000     8.363000000     6.631000000
O     0.127000000    10.054000000     1.161000000
H    -0.747000000    10.222000000     1.512000000
H     0.020000000     9.274000000     0.615000000
O     0.778000000     5.437000000     4.583000000
H     0.398000000     4.942000000     3.858000000
H     1.000000000     6.287000000     4.203000000
O     0.239000000     7.263000000     0.408000000
H    -0.017000000     6.341000000     0.378000000
H     0.826000000     7.324000000     1.161000000
O    -3.810000000     2.731000000     1.194000000
H    -3.084000000     2.194000000     0.878000000
H    -3.472000000     3.149000000     1.986000000
O     2.369000000     8.322000000    -1.556000000
H     1.789000000     7.568000000    -1.665000000
H     1.814000000     8.997000000    -1.165000000
O    -6.285000000     4.254000000     0.614000000
H    -5.875000000     5.118000000     0.596000000
H    -5.551000000     3.641000000     0.650000000
O    -4.419000000     6.223000000    -3.241000000
H    -4.592000000     7.069000000    -2.828000000
H    -3.609000000     5.918000000    -2.832000000
O    -2.861000000     5.048000000    -1.171000000
H    -2.140000000     5.014000000    -0.541000000
H    -2.699000000     4.310000000    -1.759000000
O    -3.938000000     7.980000000     4.218000000
H    -3.505000000     7.334000000     3.660000000
H    -4.141000000     8.707000000     3.630000000
O    -2.441000000     8.534000000    -0.844000000
H    -1.818000000     8.002000000    -0.348000000
H    -1.981000000     8.748000000    -1.655000000
O     0.401000000     7.197000000     6.553000000
H    -0.434000000     7.180000000     7.019000000
H     0.440000000     6.355000000     6.099000000
O    -3.064000000     3.557000000     3.557000000
H    -2.250000000     3.872000000     3.164000000
H    -3.159000000     4.072000000     4.358000000
