215
-1454.58281
C    -3.401000000     0.770000000    -4.481000000
H    -3.920000000    -0.183000000    -4.431000000
C    -2.036000000     0.782000000    -4.408000000
C    -1.342000000     1.997000000    -4.446000000
H    -0.259000000     1.932000000    -4.385000000
C    -1.197000000    -0.469000000    -4.179000000
O    -1.873000000    -1.699000000    -4.445000000
H    -1.112000000    -0.456000000    -3.082000000
O     0.055000000    -0.331000000    -4.917000000
C     1.139000000    -0.877000000    -4.344000000
C     2.077000000    -0.002000000    -3.948000000
H     1.908000000     1.027000000    -4.255000000
C     3.112000000    -0.260000000    -3.076000000
O     3.875000000     0.790000000    -2.689000000
C     3.441000000    -1.679000000    -2.937000000
C     4.706000000    -2.081000000    -2.208000000
H     5.169000000    -3.000000000    -2.571000000
C     4.432000000    -1.905000000    -0.649000000
C     3.958000000    -2.984000000     0.019000000
H     3.754000000    -3.926000000    -0.484000000
H     5.431000000    -1.317000000    -2.496000000
C     2.525000000    -2.602000000    -3.342000000
H     2.746000000    -3.661000000    -3.238000000
C     1.348000000    -2.260000000    -4.064000000
C     0.417000000    -3.379000000    -4.359000000
H     0.975000000    -4.317000000    -4.406000000
H    -0.005000000    -3.252000000    -5.358000000
C    -0.689000000    -3.531000000    -3.398000000
C    -0.582000000    -4.399000000    -2.353000000
H     0.309000000    -5.021000000    -2.316000000
C    -1.824000000    -2.713000000    -3.541000000
C    -2.889000000    -2.741000000    -2.605000000
H    -3.713000000    -2.041000000    -2.721000000
C    -2.656000000    -3.560000000    -1.448000000
O    -3.487000000    -3.282000000    -0.408000000
C    -2.948000000    -2.735000000     0.761000000
C    -3.927000000    -1.710000000     1.291000000
C    -4.087000000    -1.553000000     2.627000000
H    -3.516000000    -2.166000000     3.320000000
C    -4.650000000    -0.914000000     0.388000000
H    -4.717000000    -1.063000000    -0.687000000
O    -2.699000000    -3.742000000     1.754000000
H    -2.075000000    -2.126000000     0.485000000
C    -1.573000000    -4.457000000    -1.384000000
C    -1.421000000    -5.428000000    -0.187000000
H    -0.830000000    -6.242000000    -0.610000000
H    -2.389000000    -5.760000000     0.194000000
C    -0.683000000    -4.841000000     0.970000000
C     0.717000000    -4.877000000     1.003000000
H     1.293000000    -5.382000000     0.232000000
C    -1.378000000    -4.082000000     1.854000000
C    -0.692000000    -3.445000000     2.938000000
H    -1.236000000    -2.750000000     3.572000000
C     0.702000000    -3.446000000     3.014000000
O     1.288000000    -2.635000000     4.000000000
C     1.784000000    -1.394000000     3.531000000
C     1.448000000    -0.304000000     4.530000000
C     0.170000000    -0.241000000     5.102000000
H    -0.574000000    -1.020000000     4.960000000
C     2.377000000     0.758000000     4.644000000
H     3.348000000     0.714000000     4.158000000
O     3.225000000    -1.559000000     3.309000000
H     1.409000000    -0.945000000     2.599000000
C     1.403000000    -4.110000000     1.982000000
C     2.966000000    -4.175000000     1.999000000
H     3.317000000    -5.064000000     1.470000000
H     3.332000000    -4.350000000     3.013000000
C     3.519000000    -2.927000000     1.346000000
C     3.669000000    -1.714000000     2.030000000
C     4.260000000    -0.620000000     1.393000000
H     4.449000000     0.297000000     1.945000000
C     4.606000000    -0.720000000     0.009000000
O     5.013000000     0.482000000    -0.634000000
C     3.949000000     1.193000000    -1.273000000
H     2.994000000     0.855000000    -0.847000000
C     4.115000000     2.675000000    -1.134000000
C     3.565000000     3.517000000    -2.116000000
H     3.028000000     3.006000000    -2.911000000
C     4.393000000     3.179000000     0.118000000
H     4.835000000     2.548000000     0.884000000
C     4.188000000     4.546000000     0.384000000
O     4.694000000     5.103000000     1.539000000
C     3.802000000     5.398000000    -0.702000000
H     3.732000000     6.456000000    -0.464000000
C     3.458000000     4.875000000    -1.932000000
O     2.869000000     5.631000000    -2.838000000
C     2.111000000     5.068000000    -3.869000000
C     0.706000000     5.016000000    -3.758000000
H     0.208000000     5.472000000    -2.906000000
C     2.760000000     4.632000000    -5.028000000
H     3.846000000     4.655000000    -5.011000000
C     2.087000000     4.236000000    -6.150000000
H     2.582000000     4.001000000    -7.089000000
C     0.656000000     4.348000000    -6.087000000
H     0.135000000     4.119000000    -7.013000000
C     0.010000000     4.584000000    -4.897000000
O    -1.350000000     4.453000000    -4.776000000
C    -2.005000000     3.214000000    -4.715000000
C    -3.440000000     3.228000000    -4.879000000
H    -3.989000000     4.166000000    -4.898000000
C    -4.100000000     1.971000000    -4.639000000
O    -5.456000000     1.957000000    -4.366000000
C    -6.037000000     1.196000000    -3.419000000
C    -6.068000000     1.491000000    -2.063000000
H    -5.553000000     2.351000000    -1.643000000
C    -6.777000000     0.134000000    -3.890000000
H    -6.688000000    -0.061000000    -4.955000000
C    -7.437000000    -0.791000000    -3.024000000
H    -7.800000000    -1.738000000    -3.415000000
C    -7.284000000    -0.599000000    -1.678000000
H    -7.627000000    -1.316000000    -0.937000000
C    -6.655000000     0.578000000    -1.230000000
O    -6.391000000     0.786000000     0.124000000
C    -5.610000000    -0.008000000     0.908000000
C    -5.773000000     0.038000000     2.291000000
H    -6.532000000     0.662000000     2.758000000
C    -5.026000000    -0.702000000     3.121000000
O    -5.179000000    -0.643000000     4.501000000
C    -4.204000000    -0.729000000     5.429000000
C    -3.164000000     0.249000000     5.500000000
H    -3.055000000     1.026000000     4.748000000
C    -4.419000000    -1.530000000     6.509000000
H    -5.175000000    -2.311000000     6.509000000
C    -3.558000000    -1.424000000     7.601000000
H    -3.721000000    -2.016000000     8.499000000
C    -2.506000000    -0.534000000     7.672000000
H    -1.781000000    -0.482000000     8.480000000
C    -2.292000000     0.224000000     6.550000000
O    -1.333000000     1.146000000     6.456000000
C    -0.121000000     0.905000000     5.818000000
C     0.759000000     1.959000000     5.878000000
H     0.386000000     2.814000000     6.435000000
C     1.999000000     1.947000000     5.287000000
O     2.836000000     3.044000000     5.457000000
C     3.882000000     3.351000000     4.605000000
C     5.128000000     3.127000000     5.156000000
H     5.252000000     2.602000000     6.100000000
C     6.272000000     3.449000000     4.366000000
H     7.238000000     3.304000000     4.844000000
C     6.106000000     4.168000000     3.221000000
H     6.984000000     4.604000000     2.751000000
C     4.843000000     4.386000000     2.711000000
C     3.677000000     3.930000000     3.392000000
H     2.700000000     4.121000000     2.957000000
C    -0.833000000     1.348000000     1.763000000
H    -1.416000000     1.497000000     2.668000000
C    -0.653000000     0.065000000     1.145000000
H    -0.939000000    -0.882000000     1.597000000
C     0.100000000    -0.070000000    -0.040000000
H     0.349000000    -1.013000000    -0.373000000
C     0.560000000     1.026000000    -0.682000000
H     1.128000000     0.994000000    -1.608000000
C     0.190000000     2.320000000    -0.213000000
H     0.451000000     3.259000000    -0.694000000
C    -0.474000000     2.459000000     1.017000000
C    -0.620000000     3.832000000     1.676000000
O    -0.318000000     4.875000000     1.119000000
O    -1.269000000     3.907000000     2.684000000
O    -1.725000000     6.670000000     2.546000000
H    -1.072000000     7.138000000     3.066000000
H    -1.243000000     5.940000000     2.157000000
O    -0.399000000     8.708000000     4.282000000
H    -1.244000000     8.935000000     4.671000000
H     0.095000000     8.309000000     4.998000000
O    -1.321000000     7.789000000    -2.561000000
H    -1.054000000     8.355000000    -1.837000000
H    -1.988000000     8.294000000    -3.026000000
O    -6.912000000     4.655000000    -0.908000000
H    -5.982000000     4.458000000    -0.796000000
H    -7.317000000     4.372000000    -0.088000000
O    -5.940000000     4.304000000     3.649000000
H    -6.277000000     4.204000000     2.758000000
H    -5.198000000     3.700000000     3.693000000
O     3.214000000     7.147000000     2.714000000
H     3.986000000     6.653000000     2.438000000
H     3.524000000     7.691000000     3.438000000
O    -1.365000000     5.527000000     7.196000000
H    -0.985000000     5.223000000     6.372000000
H    -0.990000000     4.949000000     7.860000000
O    -3.157000000     8.117000000     0.521000000
H    -2.988000000     7.599000000     1.308000000
H    -2.848000000     7.567000000    -0.199000000
O    -0.533000000     9.130000000    -0.488000000
H    -1.399000000     9.205000000    -0.088000000
H    -0.001000000     8.686000000     0.173000000
O    -0.276000000     4.813000000     4.850000000
H    -0.780000000     4.460000000     4.117000000
H     0.380000000     5.377000000     4.440000000
O     0.976000000     7.597000000     0.844000000
H     0.629000000     6.711000000     0.745000000
H     1.751000000     7.490000000     1.397000000
O     2.459000000     5.019000000     7.463000000
H     2.276000000     4.785000000     6.554000000
H     3.358000000     5.348000000     7.450000000
O    -3.037000000     1.999000000    -1.014000000
H    -2.513000000     1.668000000    -1.743000000
H    -2.601000000     1.661000000    -0.232000000
O    -4.354000000     4.192000000    -0.503000000
H    -3.590000000     4.712000000    -0.754000000
H    -4.060000000     3.284000000    -0.576000000
O    -3.686000000     6.891000000     6.482000000
H    -2.799000000     6.561000000     6.623000000
H    -4.094000000     6.243000000     5.907000000
O    -4.997000000     6.188000000    -2.394000000
H    -5.588000000     5.437000000    -2.338000000
H    -4.651000000     6.286000000    -1.507000000
O    -4.421000000     6.738000000     3.380000000
H    -3.485000000     6.616000000     3.219000000
H    -4.789000000     5.856000000     3.328000000
O    -2.096000000     5.885000000    -0.662000000
H    -1.371000000     5.523000000    -0.152000000
H    -1.683000000     6.236000000    -1.451000000
O    -3.385000000     3.677000000     4.024000000
H    -2.641000000     3.954000000     3.488000000
H    -3.004000000     3.484000000     4.880000000
