215
-1439.26787
C    -3.275000000     0.960000000    -3.643000000
H    -3.342000000    -0.123000000    -3.594000000
C    -2.061000000     1.535000000    -4.004000000
C    -1.936000000     2.951000000    -4.018000000
H    -1.011000000     3.467000000    -4.262000000
C    -0.812000000     0.688000000    -4.348000000
O    -1.036000000    -0.565000000    -5.038000000
H    -0.421000000     0.458000000    -3.345000000
O     0.264000000     1.512000000    -4.917000000
C     1.450000000     1.447000000    -4.256000000
C     1.703000000     2.501000000    -3.354000000
H     0.977000000     3.301000000    -3.232000000
C     2.839000000     2.407000000    -2.513000000
O     3.113000000     3.367000000    -1.552000000
C     3.677000000     1.265000000    -2.644000000
C     4.920000000     1.112000000    -1.815000000
H     5.664000000     0.511000000    -2.341000000
C     4.655000000     0.438000000    -0.445000000
C     4.910000000    -0.879000000    -0.237000000
H     5.132000000    -1.523000000    -1.084000000
H     5.482000000     2.026000000    -1.613000000
C     3.383000000     0.218000000    -3.554000000
H     3.991000000    -0.683000000    -3.561000000
C     2.194000000     0.246000000    -4.317000000
C     1.771000000    -0.819000000    -5.265000000
H     2.655000000    -1.392000000    -5.551000000
H     1.184000000    -0.420000000    -6.094000000
C     0.924000000    -1.794000000    -4.444000000
C     1.546000000    -2.928000000    -3.906000000
H     2.616000000    -3.089000000    -4.015000000
C    -0.474000000    -1.648000000    -4.401000000
C    -1.262000000    -2.583000000    -3.768000000
H    -2.319000000    -2.384000000    -3.608000000
C    -0.644000000    -3.724000000    -3.177000000
O    -1.336000000    -4.570000000    -2.279000000
C    -1.337000000    -4.224000000    -0.913000000
C    -2.707000000    -4.155000000    -0.166000000
C    -2.843000000    -4.514000000     1.187000000
H    -1.979000000    -4.843000000     1.758000000
C    -3.812000000    -3.622000000    -0.800000000
H    -3.586000000    -3.260000000    -1.799000000
O    -0.433000000    -5.188000000    -0.264000000
H    -0.809000000    -3.260000000    -0.879000000
C     0.753000000    -3.868000000    -3.178000000
C     1.420000000    -4.929000000    -2.415000000
H     2.356000000    -5.078000000    -2.958000000
H     0.888000000    -5.878000000    -2.319000000
C     1.713000000    -4.463000000    -0.959000000
C     2.939000000    -3.997000000    -0.559000000
H     3.602000000    -3.825000000    -1.403000000
C     0.805000000    -4.723000000     0.061000000
C     1.009000000    -4.322000000     1.325000000
H     0.177000000    -4.467000000     2.009000000
C     2.222000000    -3.743000000     1.717000000
O     2.281000000    -3.266000000     2.991000000
C     2.266000000    -1.811000000     3.031000000
C     1.480000000    -1.206000000     4.170000000
C     0.256000000    -1.795000000     4.506000000
H    -0.123000000    -2.563000000     3.838000000
C     1.941000000    -0.144000000     4.909000000
H     2.828000000     0.447000000     4.695000000
O     3.605000000    -1.325000000     3.140000000
H     1.836000000    -1.387000000     2.112000000
C     3.239000000    -3.651000000     0.751000000
C     4.571000000    -3.035000000     1.042000000
H     5.341000000    -3.419000000     0.369000000
H     4.896000000    -3.349000000     2.036000000
C     4.583000000    -1.513000000     0.967000000
C     4.122000000    -0.770000000     2.026000000
C     4.020000000     0.637000000     1.892000000
H     3.439000000     1.205000000     2.614000000
C     4.302000000     1.253000000     0.656000000
O     3.902000000     2.575000000     0.552000000
C     2.748000000     3.007000000    -0.186000000
H     2.030000000     2.182000000    -0.071000000
C     2.154000000     4.223000000     0.536000000
C     1.332000000     5.071000000    -0.156000000
H     1.114000000     4.825000000    -1.192000000
C     2.202000000     4.263000000     1.928000000
H     2.974000000     3.765000000     2.509000000
C     1.397000000     5.230000000     2.634000000
O     1.504000000     5.427000000     4.015000000
C     0.756000000     6.225000000     1.873000000
H     0.200000000     7.042000000     2.327000000
C     0.667000000     6.103000000     0.478000000
O    -0.206000000     6.917000000    -0.194000000
C    -0.620000000     6.853000000    -1.515000000
C    -1.558000000     5.924000000    -1.956000000
H    -1.976000000     5.241000000    -1.221000000
C    -0.181000000     7.790000000    -2.435000000
H     0.411000000     8.629000000    -2.076000000
C    -0.521000000     7.691000000    -3.787000000
H    -0.026000000     8.262000000    -4.568000000
C    -1.359000000     6.646000000    -4.188000000
H    -1.597000000     6.417000000    -5.223000000
C    -1.869000000     5.754000000    -3.263000000
O    -2.951000000     5.012000000    -3.740000000
C    -3.011000000     3.666000000    -3.655000000
C    -4.243000000     3.040000000    -3.489000000
H    -5.117000000     3.647000000    -3.268000000
C    -4.402000000     1.672000000    -3.637000000
O    -5.609000000     1.107000000    -3.374000000
C    -5.801000000    -0.241000000    -3.349000000
C    -5.815000000    -0.955000000    -2.174000000
H    -5.663000000    -0.467000000    -1.214000000
C    -6.043000000    -0.971000000    -4.504000000
H    -6.090000000    -0.309000000    -5.365000000
C    -6.458000000    -2.287000000    -4.546000000
H    -6.489000000    -2.746000000    -5.531000000
C    -6.412000000    -3.004000000    -3.326000000
H    -6.579000000    -4.076000000    -3.262000000
C    -6.178000000    -2.266000000    -2.134000000
O    -6.112000000    -2.935000000    -0.942000000
C    -5.060000000    -3.422000000    -0.198000000
C    -5.136000000    -3.876000000     1.087000000
H    -6.064000000    -3.785000000     1.645000000
C    -4.074000000    -4.464000000     1.799000000
O    -4.199000000    -4.834000000     3.078000000
C    -3.520000000    -4.477000000     4.230000000
C    -2.898000000    -3.220000000     4.361000000
H    -2.955000000    -2.490000000     3.558000000
C    -3.485000000    -5.378000000     5.326000000
H    -4.054000000    -6.296000000     5.203000000
C    -2.714000000    -5.139000000     6.402000000
H    -2.614000000    -5.931000000     7.140000000
C    -2.176000000    -3.868000000     6.590000000
H    -1.668000000    -3.686000000     7.533000000
C    -2.239000000    -2.952000000     5.555000000
O    -1.745000000    -1.634000000     5.837000000
C    -0.479000000    -1.209000000     5.562000000
C     0.036000000    -0.156000000     6.359000000
H    -0.544000000     0.215000000     7.199000000
C     1.259000000     0.388000000     6.022000000
O     1.702000000     1.487000000     6.679000000
C     2.321000000     2.523000000     6.089000000
C     3.669000000     2.878000000     6.353000000
H     4.217000000     2.143000000     6.936000000
C     4.316000000     3.945000000     5.796000000
H     5.365000000     4.058000000     6.054000000
C     3.573000000     4.917000000     5.119000000
H     3.995000000     5.900000000     4.923000000
C     2.223000000     4.588000000     4.832000000
C     1.573000000     3.432000000     5.359000000
H     0.527000000     3.173000000     5.215000000
C    -1.432000000     1.382000000    -0.182000000
H    -1.646000000     2.329000000    -0.671000000
C    -0.223000000     0.765000000    -0.444000000
H     0.473000000     1.170000000    -1.174000000
C     0.106000000    -0.463000000     0.059000000
H     1.002000000    -1.056000000    -0.168000000
C    -0.846000000    -1.088000000     0.925000000
H    -0.708000000    -2.074000000     1.361000000
C    -2.081000000    -0.521000000     1.112000000
H    -2.831000000    -1.052000000     1.693000000
C    -2.430000000     0.763000000     0.618000000
C    -3.836000000     1.345000000     0.828000000
O    -4.731000000     0.667000000     1.210000000
O    -4.129000000     2.494000000     0.584000000
O    -3.829000000     5.127000000     0.525000000
H    -4.130000000     4.219000000     0.493000000
H    -4.539000000     5.629000000     0.125000000
O    -2.413000000     3.366000000     5.956000000
H    -2.413000000     2.897000000     6.790000000
H    -2.319000000     2.679000000     5.295000000
O    -2.201000000     5.281000000     2.678000000
H    -2.672000000     5.138000000     1.857000000
H    -1.584000000     4.552000000     2.730000000
O    -4.455000000     0.011000000     6.189000000
H    -4.657000000    -0.561000000     5.448000000
H    -4.420000000     0.889000000     5.811000000
O    -6.343000000     2.362000000     5.536000000
H    -6.028000000     2.569000000     4.657000000
H    -6.686000000     3.191000000     5.869000000
O    -0.834000000     2.993000000     2.774000000
H    -0.459000000     2.464000000     2.070000000
H    -0.980000000     2.373000000     3.489000000
O    -2.676000000     1.309000000     4.301000000
H    -2.850000000     0.434000000     3.952000000
H    -3.505000000     1.777000000     4.199000000
O    -8.589000000     0.307000000    -1.150000000
H    -9.060000000    -0.480000000    -1.425000000
H    -8.882000000     0.986000000    -1.758000000
O    -6.464000000     2.966000000    -0.832000000
H    -5.604000000     2.587000000    -0.654000000
H    -6.925000000     2.918000000     0.006000000
O    -5.168000000    -0.570000000     3.479000000
H    -6.124000000    -0.612000000     3.478000000
H    -4.946000000    -0.139000000     2.654000000
O    -9.918000000     2.273000000     0.800000000
H    -9.516000000     2.866000000     1.434000000
H    -9.178000000     1.857000000     0.358000000
O    -4.647000000     5.823000000     3.630000000
H    -5.063000000     6.506000000     3.105000000
H    -3.764000000     5.746000000     3.268000000
O    -7.453000000     3.250000000     1.815000000
H    -7.655000000     4.054000000     2.294000000
H    -7.020000000     2.690000000     2.459000000
O    -7.201000000    -0.709000000     1.066000000
H    -7.572000000    -0.332000000     0.269000000
H    -6.294000000    -0.403000000     1.077000000
O    -5.428000000     6.583000000    -0.939000000
H    -5.529000000     7.362000000    -1.488000000
H    -6.107000000     5.983000000    -1.249000000
O    -8.797000000     0.114000000     3.280000000
H    -8.322000000    -0.118000000     2.482000000
H    -9.463000000     0.738000000     2.990000000
O    -7.703000000     5.158000000    -1.690000000
H    -8.401000000     5.441000000    -1.100000000
H    -7.415000000     4.317000000    -1.335000000
O    -4.868000000     4.620000000     6.531000000
H    -4.040000000     4.141000000     6.560000000
H    -4.888000000     5.010000000     5.656000000
O    -4.881000000     3.113000000     3.199000000
H    -4.507000000     2.767000000     2.388000000
H    -5.090000000     4.025000000     2.997000000
