215
-1458.82577
C    -3.567000000     0.964000000    -3.578000000
H    -3.634000000    -0.105000000    -3.763000000
C    -2.356000000     1.636000000    -3.736000000
C    -2.298000000     2.934000000    -3.250000000
H    -1.319000000     3.402000000    -3.313000000
C    -1.102000000     0.859000000    -4.143000000
O    -1.411000000    -0.390000000    -4.780000000
H    -0.630000000     0.696000000    -3.163000000
O    -0.141000000     1.664000000    -4.929000000
C     1.153000000     1.613000000    -4.459000000
C     1.506000000     2.535000000    -3.454000000
H     0.912000000     3.427000000    -3.268000000
C     2.712000000     2.404000000    -2.765000000
O     3.023000000     3.363000000    -1.773000000
C     3.514000000     1.269000000    -2.985000000
C     4.876000000     1.030000000    -2.323000000
H     5.349000000     0.247000000    -2.920000000
C     4.697000000     0.459000000    -0.910000000
C     4.696000000    -0.918000000    -0.740000000
H     4.672000000    -1.603000000    -1.583000000
H     5.416000000     1.975000000    -2.242000000
C     3.156000000     0.321000000    -4.009000000
H     3.675000000    -0.620000000    -4.168000000
C     1.940000000     0.458000000    -4.672000000
C     1.413000000    -0.705000000    -5.404000000
H     2.257000000    -1.162000000    -5.926000000
H     0.907000000    -0.283000000    -6.275000000
C     0.568000000    -1.784000000    -4.716000000
C     1.229000000    -2.864000000    -4.151000000
H     2.313000000    -2.833000000    -4.229000000
C    -0.781000000    -1.560000000    -4.387000000
C    -1.523000000    -2.524000000    -3.691000000
H    -2.541000000    -2.221000000    -3.460000000
C    -0.874000000    -3.632000000    -3.230000000
O    -1.611000000    -4.371000000    -2.377000000
C    -1.516000000    -4.162000000    -0.904000000
C    -2.868000000    -3.980000000    -0.217000000
C    -2.994000000    -4.113000000     1.190000000
H    -2.161000000    -4.431000000     1.812000000
C    -3.957000000    -3.508000000    -0.992000000
H    -3.816000000    -3.304000000    -2.050000000
O    -0.575000000    -5.187000000    -0.329000000
H    -1.035000000    -3.178000000    -0.799000000
C     0.537000000    -3.786000000    -3.306000000
C     1.224000000    -4.885000000    -2.547000000
H     2.103000000    -5.198000000    -3.115000000
H     0.525000000    -5.722000000    -2.479000000
C     1.601000000    -4.531000000    -1.119000000
C     2.891000000    -3.946000000    -0.893000000
H     3.571000000    -3.834000000    -1.733000000
C     0.735000000    -4.744000000    -0.061000000
C     1.083000000    -4.317000000     1.254000000
H     0.357000000    -4.498000000     2.043000000
C     2.332000000    -3.656000000     1.448000000
O     2.701000000    -3.131000000     2.690000000
C     2.575000000    -1.719000000     2.897000000
C     1.843000000    -1.279000000     4.197000000
C     0.823000000    -2.059000000     4.692000000
H     0.790000000    -3.116000000     4.439000000
C     1.970000000     0.040000000     4.709000000
H     2.595000000     0.682000000     4.094000000
O     3.840000000    -1.066000000     2.868000000
H     1.811000000    -1.406000000     2.170000000
C     3.247000000    -3.545000000     0.375000000
C     4.622000000    -2.897000000     0.558000000
H     5.276000000    -3.332000000    -0.200000000
H     5.050000000    -3.180000000     1.522000000
C     4.540000000    -1.414000000     0.533000000
C     4.312000000    -0.568000000     1.660000000
C     4.346000000     0.823000000     1.452000000
H     4.289000000     1.489000000     2.310000000
C     4.523000000     1.294000000     0.153000000
O     4.453000000     2.636000000    -0.019000000
C     3.124000000     2.999000000    -0.437000000
H     2.455000000     2.141000000    -0.276000000
C     2.625000000     4.147000000     0.422000000
C     1.508000000     4.928000000     0.042000000
H     0.897000000     4.784000000    -0.846000000
C     3.180000000     4.484000000     1.679000000
H     4.045000000     3.904000000     1.991000000
C     2.616000000     5.415000000     2.552000000
O     3.206000000     5.593000000     3.748000000
C     1.368000000     5.971000000     2.310000000
H     0.925000000     6.674000000     3.011000000
C     0.894000000     5.803000000     0.981000000
O    -0.260000000     6.547000000     0.709000000
C    -0.848000000     6.706000000    -0.547000000
C    -1.779000000     5.728000000    -0.928000000
H    -2.272000000     5.098000000    -0.192000000
C    -0.427000000     7.673000000    -1.457000000
H     0.232000000     8.484000000    -1.160000000
C    -0.858000000     7.544000000    -2.750000000
H    -0.582000000     8.234000000    -3.544000000
C    -1.827000000     6.579000000    -3.146000000
H    -2.294000000     6.512000000    -4.126000000
C    -2.293000000     5.603000000    -2.230000000
O    -3.435000000     4.975000000    -2.464000000
C    -3.465000000     3.586000000    -2.751000000
C    -4.712000000     2.970000000    -2.800000000
H    -5.662000000     3.438000000    -2.555000000
C    -4.744000000     1.664000000    -3.244000000
O    -5.986000000     1.160000000    -3.194000000
C    -6.330000000    -0.179000000    -3.225000000
C    -6.202000000    -0.987000000    -2.065000000
H    -5.952000000    -0.548000000    -1.103000000
C    -6.576000000    -0.789000000    -4.508000000
H    -6.747000000    -0.167000000    -5.383000000
C    -6.858000000    -2.150000000    -4.534000000
H    -7.143000000    -2.440000000    -5.542000000
C    -6.836000000    -2.918000000    -3.369000000
H    -7.147000000    -3.959000000    -3.350000000
C    -6.397000000    -2.365000000    -2.154000000
O    -6.292000000    -3.125000000    -1.003000000
C    -5.163000000    -3.387000000    -0.314000000
C    -5.248000000    -3.427000000     1.103000000
H    -6.213000000    -3.316000000     1.591000000
C    -4.206000000    -3.947000000     1.835000000
O    -4.330000000    -3.980000000     3.218000000
C    -3.258000000    -4.242000000     4.043000000
C    -2.593000000    -3.186000000     4.661000000
H    -2.727000000    -2.187000000     4.253000000
C    -3.141000000    -5.558000000     4.584000000
H    -3.836000000    -6.299000000     4.196000000
C    -2.258000000    -5.729000000     5.639000000
H    -2.052000000    -6.722000000     6.031000000
C    -1.479000000    -4.678000000     6.094000000
H    -0.683000000    -4.809000000     6.823000000
C    -1.738000000    -3.363000000     5.792000000
O    -1.004000000    -2.340000000     6.345000000
C    -0.059000000    -1.557000000     5.666000000
C     0.138000000    -0.255000000     6.138000000
H    -0.511000000     0.107000000     6.931000000
C     1.152000000     0.593000000     5.671000000
O     1.335000000     1.876000000     6.126000000
C     2.415000000     2.705000000     5.875000000
C     3.658000000     2.589000000     6.560000000
H     3.711000000     1.831000000     7.337000000
C     4.715000000     3.458000000     6.283000000
H     5.638000000     3.306000000     6.838000000
C     4.563000000     4.449000000     5.298000000
H     5.355000000     5.095000000     4.928000000
C     3.350000000     4.596000000     4.709000000
C     2.231000000     3.747000000     4.977000000
H     1.236000000     3.976000000     4.605000000
C    -1.691000000     2.372000000     0.558000000
H    -1.804000000     3.327000000     1.065000000
C    -0.536000000     1.975000000    -0.072000000
H     0.395000000     2.535000000    -0.057000000
C    -0.473000000     0.705000000    -0.660000000
H     0.425000000     0.310000000    -1.201000000
C    -1.607000000    -0.045000000    -0.796000000
H    -1.575000000    -0.945000000    -1.405000000
C    -2.794000000     0.395000000    -0.239000000
H    -3.642000000    -0.264000000    -0.404000000
C    -2.871000000     1.602000000     0.473000000
C    -4.158000000     2.050000000     1.168000000
O    -5.088000000     1.209000000     1.235000000
O    -4.277000000     3.172000000     1.595000000
O    -4.819000000     5.204000000    -0.235000000
H    -4.507000000     4.435000000     0.241000000
H    -4.543000000     5.055000000    -1.139000000
O    -0.682000000     2.007000000     3.604000000
H     0.135000000     1.730000000     4.019000000
H    -0.956000000     1.248000000     3.088000000
O    -6.695000000    -0.340000000     6.012000000
H    -6.375000000    -0.858000000     5.273000000
H    -7.249000000     0.331000000     5.613000000
O    -3.637000000    -0.697000000     6.787000000
H    -3.979000000    -0.475000000     5.921000000
H    -3.796000000    -1.637000000     6.872000000
O    -2.072000000     7.094000000     3.067000000
H    -2.025000000     6.663000000     2.213000000
H    -1.843000000     6.407000000     3.694000000
O    -3.772000000     1.637000000     4.828000000
H    -3.403000000     2.176000000     5.528000000
H    -4.508000000     2.150000000     4.494000000
O    -7.200000000     5.600000000     1.090000000
H    -6.429000000     5.780000000     0.552000000
H    -7.123000000     4.674000000     1.316000000
O    -6.487000000     3.452000000     4.982000000
H    -6.791000000     3.968000000     5.728000000
H    -6.080000000     4.092000000     4.397000000
O    -2.020000000     4.438000000     4.328000000
H    -2.876000000     4.446000000     3.900000000
H    -1.627000000     3.606000000     4.062000000
O    -0.859000000    -0.533000000     1.956000000
H    -0.897000000    -0.082000000     1.113000000
H    -1.773000000    -0.615000000     2.226000000
O    -9.190000000    -1.377000000     3.590000000
H    -8.484000000    -0.935000000     3.121000000
H    -9.810000000    -1.632000000     2.906000000
O    -7.175000000     2.847000000     1.379000000
H    -6.336000000     2.390000000     1.310000000
H    -7.587000000     2.475000000     2.158000000
O    -3.540000000    -0.301000000     2.785000000
H    -3.469000000     0.382000000     3.452000000
H    -4.308000000    -0.055000000     2.270000000
O    -6.093000000    -1.511000000     3.691000000
H    -6.316000000    -1.115000000     2.848000000
H    -5.183000000    -1.789000000     3.591000000
O    -8.633000000     2.164000000     3.618000000
H    -7.768000000     2.298000000     4.006000000
H    -9.205000000     2.768000000     4.091000000
O    -7.475000000    -0.351000000     1.749000000
H    -8.140000000    -0.269000000     1.066000000
H    -6.734000000     0.161000000     1.424000000
O    -4.026000000     7.399000000     0.977000000
H    -4.375000000     6.625000000     0.535000000
H    -3.720000000     7.963000000     0.267000000
O    -8.952000000     2.503000000    -1.355000000
H    -9.757000000     2.967000000    -1.127000000
H    -8.334000000     2.742000000    -0.664000000
O    -4.786000000     4.935000000     3.403000000
H    -4.714000000     4.308000000     2.684000000
H    -4.671000000     5.790000000     2.988000000
