215
-1446.23997
C    -3.578000000     0.964000000    -3.674000000
H    -3.568000000    -0.094000000    -3.423000000
C    -2.412000000     1.634000000    -3.890000000
C    -2.365000000     3.009000000    -3.939000000
H    -1.470000000     3.520000000    -4.284000000
C    -1.091000000     0.874000000    -4.060000000
O    -1.302000000    -0.261000000    -4.879000000
H    -0.757000000     0.554000000    -3.062000000
O    -0.043000000     1.687000000    -4.664000000
C     1.183000000     1.506000000    -4.129000000
C     1.616000000     2.399000000    -3.181000000
H     1.043000000     3.272000000    -2.877000000
C     2.888000000     2.261000000    -2.649000000
O     3.212000000     3.225000000    -1.662000000
C     3.728000000     1.213000000    -2.923000000
C     5.082000000     1.097000000    -2.163000000
H     5.778000000     0.486000000    -2.741000000
C     4.921000000     0.435000000    -0.828000000
C     5.026000000    -0.955000000    -0.693000000
H     5.169000000    -1.650000000    -1.517000000
H     5.610000000     2.042000000    -2.016000000
C     3.230000000     0.267000000    -3.878000000
H     3.874000000    -0.561000000    -4.163000000
C     1.956000000     0.324000000    -4.364000000
C     1.532000000    -0.743000000    -5.391000000
H     2.382000000    -1.207000000    -5.897000000
H     1.065000000    -0.306000000    -6.276000000
C     0.660000000    -1.742000000    -4.680000000
C     1.142000000    -2.941000000    -4.165000000
H     2.182000000    -3.237000000    -4.284000000
C    -0.728000000    -1.463000000    -4.481000000
C    -1.516000000    -2.385000000    -3.890000000
H    -2.529000000    -2.091000000    -3.630000000
C    -0.986000000    -3.439000000    -3.198000000
O    -1.688000000    -4.092000000    -2.209000000
C    -1.580000000    -3.611000000    -0.831000000
C    -2.888000000    -3.497000000    -0.055000000
C    -2.957000000    -3.572000000     1.298000000
H    -2.073000000    -3.930000000     1.819000000
C    -4.081000000    -3.269000000    -0.773000000
H    -4.094000000    -3.261000000    -1.860000000
O    -0.770000000    -4.578000000    -0.193000000
H    -1.081000000    -2.631000000    -0.825000000
C     0.409000000    -3.711000000    -3.318000000
C     1.070000000    -4.782000000    -2.506000000
H     1.978000000    -5.093000000    -3.028000000
H     0.483000000    -5.698000000    -2.605000000
C     1.484000000    -4.312000000    -1.072000000
C     2.834000000    -4.019000000    -0.808000000
H     3.602000000    -4.055000000    -1.576000000
C     0.579000000    -4.341000000    -0.029000000
C     1.035000000    -4.035000000     1.273000000
H     0.245000000    -4.078000000     2.019000000
C     2.366000000    -3.594000000     1.458000000
O     2.686000000    -3.177000000     2.719000000
C     2.808000000    -1.766000000     2.987000000
C     2.130000000    -1.333000000     4.267000000
C     1.103000000    -2.148000000     4.738000000
H     0.775000000    -2.992000000     4.136000000
C     2.408000000    -0.120000000     4.879000000
H     3.252000000     0.478000000     4.543000000
O     4.220000000    -1.353000000     2.821000000
H     2.172000000    -1.341000000     2.196000000
C     3.293000000    -3.573000000     0.398000000
C     4.737000000    -3.076000000     0.597000000
H     5.312000000    -3.545000000    -0.205000000
H     5.133000000    -3.450000000     1.543000000
C     4.874000000    -1.584000000     0.523000000
C     4.629000000    -0.797000000     1.654000000
C     4.667000000     0.589000000     1.546000000
H     4.529000000     1.135000000     2.475000000
C     4.694000000     1.203000000     0.342000000
O     4.260000000     2.535000000     0.295000000
C     2.998000000     2.834000000    -0.297000000
H     2.505000000     1.851000000    -0.331000000
C     2.244000000     3.913000000     0.555000000
C     0.983000000     4.425000000     0.048000000
H     0.562000000     4.143000000    -0.913000000
C     2.661000000     4.342000000     1.817000000
H     3.640000000     4.089000000     2.216000000
C     1.772000000     5.034000000     2.638000000
O     2.096000000     5.268000000     3.939000000
C     0.571000000     5.513000000     2.145000000
H    -0.056000000     6.106000000     2.805000000
C     0.318000000     5.372000000     0.782000000
O    -0.961000000     5.824000000     0.303000000
C    -1.394000000     6.295000000    -0.925000000
C    -2.300000000     5.524000000    -1.708000000
H    -2.646000000     4.579000000    -1.296000000
C    -0.940000000     7.544000000    -1.458000000
H    -0.324000000     8.191000000    -0.839000000
C    -1.393000000     7.931000000    -2.691000000
H    -1.218000000     8.959000000    -3.001000000
C    -2.313000000     7.167000000    -3.436000000
H    -2.703000000     7.523000000    -4.387000000
C    -2.754000000     5.947000000    -2.975000000
O    -3.570000000     5.114000000    -3.809000000
C    -3.553000000     3.730000000    -3.825000000
C    -4.790000000     3.007000000    -3.608000000
H    -5.760000000     3.479000000    -3.474000000
C    -4.763000000     1.635000000    -3.636000000
O    -6.018000000     0.990000000    -3.394000000
C    -6.090000000    -0.377000000    -3.337000000
C    -6.377000000    -0.929000000    -2.107000000
H    -6.378000000    -0.357000000    -1.183000000
C    -5.917000000    -1.146000000    -4.480000000
H    -5.826000000    -0.652000000    -5.444000000
C    -6.169000000    -2.507000000    -4.365000000
H    -6.156000000    -3.145000000    -5.246000000
C    -6.493000000    -3.097000000    -3.195000000
H    -6.757000000    -4.150000000    -3.140000000
C    -6.519000000    -2.322000000    -2.029000000
O    -6.474000000    -2.945000000    -0.877000000
C    -5.278000000    -3.142000000    -0.163000000
C    -5.344000000    -3.075000000     1.207000000
H    -6.319000000    -3.011000000     1.684000000
C    -4.130000000    -3.305000000     1.988000000
O    -4.214000000    -3.365000000     3.311000000
C    -3.210000000    -3.826000000     4.112000000
C    -2.424000000    -2.923000000     4.841000000
H    -2.667000000    -1.867000000     4.758000000
C    -2.976000000    -5.196000000     4.334000000
H    -3.521000000    -5.976000000     3.807000000
C    -2.055000000    -5.712000000     5.281000000
H    -1.921000000    -6.764000000     5.518000000
C    -1.234000000    -4.769000000     5.894000000
H    -0.334000000    -5.120000000     6.391000000
C    -1.363000000    -3.428000000     5.636000000
O    -0.639000000    -2.590000000     6.426000000
C     0.431000000    -1.817000000     5.908000000
C     0.802000000    -0.678000000     6.567000000
H     0.235000000    -0.369000000     7.442000000
C     1.723000000     0.247000000     6.046000000
O     2.035000000     1.346000000     6.766000000
C     2.657000000     2.513000000     6.289000000
C     3.953000000     2.869000000     6.747000000
H     4.469000000     2.238000000     7.466000000
C     4.535000000     4.061000000     6.378000000
H     5.450000000     4.298000000     6.915000000
C     3.875000000     4.878000000     5.474000000
H     4.227000000     5.881000000     5.244000000
C     2.697000000     4.461000000     4.844000000
C     2.095000000     3.265000000     5.221000000
H     1.157000000     3.012000000     4.733000000
C    -1.598000000     1.753000000     1.568000000
H    -1.397000000     2.452000000     2.375000000
C    -0.574000000     0.872000000     1.145000000
H     0.425000000     0.933000000     1.570000000
C    -0.722000000     0.063000000     0.027000000
H     0.153000000    -0.360000000    -0.417000000
C    -1.899000000     0.064000000    -0.718000000
H    -1.955000000    -0.651000000    -1.535000000
C    -2.976000000     0.925000000    -0.381000000
H    -3.964000000     0.953000000    -0.833000000
C    -2.770000000     1.750000000     0.789000000
C    -3.908000000     2.675000000     1.157000000
O    -4.880000000     2.772000000     0.495000000
O    -3.812000000     3.378000000     2.191000000
O    -8.972000000     6.570000000    -0.283000000
H    -8.823000000     7.197000000     0.424000000
H    -8.655000000     5.736000000     0.065000000
O    -5.772000000     5.009000000     2.928000000
H    -5.224000000     5.781000000     3.072000000
H    -5.199000000     4.389000000     2.478000000
O    -2.745000000     1.479000000     7.248000000
H    -2.853000000     0.820000000     7.934000000
H    -2.776000000     0.981000000     6.431000000
O    -9.784000000     1.688000000     2.409000000
H    -9.214000000     2.449000000     2.519000000
H   -10.650000000     2.060000000     2.242000000
O    -4.543000000     7.349000000     1.698000000
H    -5.204000000     8.041000000     1.732000000
H    -3.790000000     7.714000000     2.161000000
O    -6.770000000     3.094000000     4.893000000
H    -6.442000000     3.534000000     5.677000000
H    -6.192000000     3.394000000     4.191000000
O    -5.443000000     5.468000000    -0.246000000
H    -5.033000000     4.652000000     0.042000000
H    -5.214000000     6.103000000     0.433000000
O    -9.178000000     0.567000000    -0.118000000
H    -9.549000000     0.801000000     0.733000000
H    -8.490000000     1.216000000    -0.266000000
O    -9.108000000     4.169000000     0.955000000
H    -8.517000000     3.530000000     0.557000000
H    -9.984000000     3.864000000     0.720000000
O    -1.245000000     3.622000000     6.611000000
H    -1.687000000     3.961000000     5.833000000
H    -1.878000000     3.019000000     7.002000000
O    -2.437000000     0.688000000     4.415000000
H    -1.958000000     1.516000000     4.452000000
H    -2.367000000     0.411000000     3.502000000
O    -7.925000000     6.463000000     2.375000000
H    -8.573000000     5.820000000     2.088000000
H    -7.159000000     5.942000000     2.613000000
O    -7.391000000     2.540000000    -0.188000000
H    -6.496000000     2.760000000     0.070000000
H    -7.372000000     2.547000000    -1.145000000
O    -4.834000000    -0.265000000     4.205000000
H    -4.038000000     0.240000000     4.372000000
H    -5.286000000     0.220000000     3.515000000
O    -6.253000000     1.131000000     2.376000000
H    -6.215000000     1.705000000     3.142000000
H    -5.973000000     1.685000000     1.648000000
O    -7.113000000     5.230000000    -2.444000000
H    -6.305000000     5.072000000    -1.957000000
H    -7.514000000     5.981000000    -2.006000000
O    -4.450000000     6.627000000     5.085000000
H    -4.250000000     6.846000000     5.995000000
H    -5.403000000     6.696000000     5.026000000
O    -2.409000000     4.292000000     4.080000000
H    -3.029000000     5.010000000     4.208000000
H    -2.801000000     3.756000000     3.391000000
O    -4.756000000     8.427000000    -0.961000000
H    -5.036000000     7.512000000    -0.981000000
H    -4.015000000     8.438000000    -0.356000000
