215
-1451.20343
C    -3.234000000     1.094000000    -4.738000000
H    -3.228000000     0.041000000    -5.008000000
C    -2.135000000     1.825000000    -4.362000000
C    -2.261000000     3.185000000    -3.890000000
H    -1.335000000     3.686000000    -3.618000000
C    -0.778000000     1.134000000    -4.234000000
O    -0.780000000    -0.098000000    -5.009000000
H    -0.732000000     0.820000000    -3.181000000
O     0.336000000     2.121000000    -4.523000000
C     1.541000000     2.045000000    -3.859000000
C     1.708000000     3.000000000    -2.791000000
H     1.073000000     3.881000000    -2.739000000
C     2.856000000     2.887000000    -1.990000000
O     2.939000000     3.691000000    -0.915000000
C     3.830000000     1.915000000    -2.242000000
C     5.141000000     1.826000000    -1.352000000
H     5.925000000     1.303000000    -1.903000000
C     5.015000000     1.048000000    -0.051000000
C     5.209000000    -0.363000000    -0.016000000
H     5.494000000    -0.915000000    -0.908000000
H     5.588000000     2.807000000    -1.178000000
C     3.686000000     0.976000000    -3.301000000
H     4.361000000     0.151000000    -3.514000000
C     2.468000000     0.998000000    -4.075000000
C     2.157000000    -0.049000000    -5.056000000
H     3.138000000    -0.398000000    -5.383000000
H     1.691000000     0.316000000    -5.973000000
C     1.358000000    -1.193000000    -4.461000000
C     2.054000000    -2.214000000    -3.853000000
H     3.117000000    -2.126000000    -3.644000000
C    -0.040000000    -1.202000000    -4.560000000
C    -0.750000000    -2.200000000    -4.048000000
H    -1.824000000    -2.241000000    -4.211000000
C    -0.125000000    -3.293000000    -3.517000000
O    -0.938000000    -4.138000000    -2.798000000
C    -0.973000000    -3.880000000    -1.297000000
C    -2.434000000    -3.942000000    -0.700000000
C    -2.870000000    -4.562000000     0.458000000
H    -2.168000000    -5.194000000     0.995000000
C    -3.351000000    -3.077000000    -1.375000000
H    -3.008000000    -2.483000000    -2.218000000
O    -0.133000000    -4.885000000    -0.674000000
H    -0.542000000    -2.879000000    -1.146000000
C     1.314000000    -3.305000000    -3.341000000
C     1.953000000    -4.489000000    -2.656000000
H     2.953000000    -4.594000000    -3.080000000
H     1.453000000    -5.445000000    -2.825000000
C     2.139000000    -4.196000000    -1.196000000
C     3.304000000    -3.468000000    -0.739000000
H     4.093000000    -3.181000000    -1.429000000
C     1.144000000    -4.454000000    -0.260000000
C     1.330000000    -4.075000000     1.086000000
H     0.540000000    -4.370000000     1.772000000
C     2.490000000    -3.453000000     1.494000000
O     2.589000000    -3.094000000     2.877000000
C     2.438000000    -1.615000000     3.076000000
C     1.483000000    -1.410000000     4.198000000
C     0.333000000    -2.182000000     4.345000000
H     0.036000000    -2.949000000     3.635000000
C     1.668000000    -0.384000000     5.178000000
H     2.494000000     0.320000000     5.121000000
O     3.700000000    -1.068000000     3.350000000
H     1.999000000    -1.152000000     2.180000000
C     3.541000000    -3.265000000     0.617000000
C     4.947000000    -2.610000000     1.097000000
H     5.740000000    -2.890000000     0.401000000
H     5.273000000    -2.918000000     2.092000000
C     4.850000000    -1.126000000     1.131000000
C     4.363000000    -0.440000000     2.255000000
C     4.172000000     0.947000000     2.234000000
H     3.683000000     1.416000000     3.084000000
C     4.510000000     1.665000000     1.083000000
O     3.952000000     2.911000000     1.021000000
C     2.709000000     3.042000000     0.334000000
H     2.333000000     2.016000000     0.210000000
C     1.687000000     3.828000000     1.194000000
C     0.441000000     4.108000000     0.652000000
H     0.342000000     3.730000000    -0.362000000
C     1.931000000     4.240000000     2.531000000
H     2.817000000     3.993000000     3.110000000
C     0.949000000     4.935000000     3.221000000
O     1.123000000     5.218000000     4.575000000
C    -0.288000000     5.218000000     2.651000000
H    -0.951000000     5.806000000     3.281000000
C    -0.523000000     4.790000000     1.345000000
O    -1.762000000     4.978000000     0.835000000
C    -1.972000000     5.736000000    -0.299000000
C    -2.746000000     5.172000000    -1.331000000
H    -3.354000000     4.322000000    -1.031000000
C    -1.071000000     6.760000000    -0.634000000
H    -0.299000000     7.119000000     0.042000000
C    -0.966000000     7.167000000    -1.982000000
H    -0.330000000     8.005000000    -2.255000000
C    -1.857000000     6.734000000    -2.947000000
H    -1.805000000     7.023000000    -3.994000000
C    -2.729000000     5.700000000    -2.657000000
O    -3.504000000     5.116000000    -3.611000000
C    -3.490000000     3.743000000    -3.890000000
C    -4.631000000     2.997000000    -4.399000000
H    -5.599000000     3.482000000    -4.497000000
C    -4.509000000     1.665000000    -4.709000000
O    -5.643000000     0.944000000    -4.990000000
C    -5.803000000    -0.347000000    -4.559000000
C    -5.814000000    -0.577000000    -3.188000000
H    -5.833000000     0.235000000    -2.466000000
C    -5.829000000    -1.380000000    -5.479000000
H    -5.890000000    -1.284000000    -6.560000000
C    -5.847000000    -2.718000000    -5.003000000
H    -5.952000000    -3.572000000    -5.667000000
C    -5.728000000    -2.974000000    -3.660000000
H    -5.575000000    -4.013000000    -3.382000000
C    -5.754000000    -1.900000000    -2.740000000
O    -5.554000000    -2.091000000    -1.441000000
C    -4.622000000    -2.988000000    -0.875000000
C    -5.064000000    -3.594000000     0.283000000
H    -6.112000000    -3.436000000     0.522000000
C    -4.158000000    -4.391000000     1.010000000
O    -4.436000000    -4.881000000     2.267000000
C    -3.385000000    -4.869000000     3.201000000
C    -3.073000000    -3.715000000     3.946000000
H    -3.543000000    -2.768000000     3.695000000
C    -2.726000000    -6.078000000     3.504000000
H    -2.864000000    -7.033000000     3.003000000
C    -1.829000000    -5.993000000     4.605000000
H    -1.268000000    -6.865000000     4.931000000
C    -1.518000000    -4.883000000     5.271000000
H    -0.762000000    -4.832000000     6.050000000
C    -2.111000000    -3.720000000     4.928000000
O    -1.777000000    -2.573000000     5.584000000
C    -0.557000000    -2.011000000     5.410000000
C    -0.342000000    -1.022000000     6.405000000
H    -0.832000000    -0.877000000     7.365000000
C     0.764000000    -0.121000000     6.186000000
O     0.908000000     1.025000000     6.974000000
C     1.603000000     2.167000000     6.604000000
C     2.820000000     2.437000000     7.291000000
H     3.161000000     1.733000000     8.045000000
C     3.507000000     3.631000000     6.940000000
H     4.361000000     3.905000000     7.553000000
C     3.041000000     4.549000000     6.017000000
H     3.518000000     5.501000000     5.803000000
C     1.788000000     4.288000000     5.429000000
C     1.085000000     3.063000000     5.690000000
H     0.150000000     2.870000000     5.170000000
C    -2.087000000     1.109000000    -0.528000000
H    -2.216000000     1.907000000    -1.255000000
C    -0.854000000     0.459000000    -0.402000000
H     0.013000000     0.750000000    -0.990000000
C    -0.796000000    -0.676000000     0.405000000
H     0.087000000    -1.388000000     0.445000000
C    -1.916000000    -1.186000000     1.095000000
H    -1.878000000    -2.150000000     1.594000000
C    -3.139000000    -0.555000000     0.888000000
H    -4.000000000    -1.020000000     1.359000000
C    -3.234000000     0.626000000     0.129000000
C    -4.552000000     1.252000000    -0.048000000
O    -5.484000000     0.830000000     0.576000000
O    -4.588000000     2.286000000    -0.690000000
O    -6.536000000     5.787000000    -1.096000000
H    -6.564000000     6.711000000    -0.847000000
H    -6.093000000     5.356000000    -0.365000000
O    -7.622000000     5.674000000     2.371000000
H    -6.674000000     5.636000000     2.246000000
H    -7.737000000     5.731000000     3.320000000
O    -6.360000000    -0.236000000     5.022000000
H    -6.540000000    -0.759000000     4.241000000
H    -5.833000000    -0.809000000     5.579000000
O    -7.017000000    -1.306000000     2.410000000
H    -7.554000000    -1.439000000     1.629000000
H    -6.538000000    -0.495000000     2.236000000
O    -8.531000000    -1.209000000    -2.036000000
H    -8.344000000    -2.105000000    -1.758000000
H    -8.149000000    -0.660000000    -1.351000000
O    -9.649000000     4.102000000     1.014000000
H    -9.630000000     4.960000000     0.589000000
H    -9.025000000     4.178000000     1.736000000
O    -7.932000000     0.117000000     0.207000000
H    -7.007000000     0.285000000     0.027000000
H    -8.373000000     0.935000000    -0.024000000
O    -5.152000000     4.145000000     1.066000000
H    -4.443000000     4.787000000     1.025000000
H    -4.879000000     3.449000000     0.468000000
O    -1.421000000     1.317000000     2.637000000
H    -0.773000000     1.711000000     2.052000000
H    -1.780000000     0.583000000     2.138000000
O    -9.405000000    -2.219000000     1.019000000
H    -9.344000000    -1.265000000     0.978000000
H    -9.087000000    -2.516000000     0.166000000
O    -4.932000000     2.001000000     4.586000000
H    -5.228000000     2.219000000     3.702000000
H    -5.300000000     1.134000000     4.755000000
O    -2.345000000     1.224000000     5.208000000
H    -3.135000000     1.747000000     5.073000000
H    -1.856000000     1.313000000     4.390000000
O    -6.686000000     3.054000000    -2.027000000
H    -6.606000000     3.985000000    -1.821000000
H    -5.815000000     2.695000000    -1.855000000
O    -8.470000000     2.193000000    -4.537000000
H    -8.385000000     1.240000000    -4.553000000
H    -7.668000000     2.498000000    -4.113000000
O   -10.724000000     0.300000000    -2.142000000
H   -10.155000000    -0.451000000    -2.311000000
H   -10.139000000     0.968000000    -1.784000000
O    -9.052000000     2.367000000     3.817000000
H    -8.528000000     3.144000000     4.015000000
H    -8.495000000     1.844000000     3.241000000
O    -6.588000000     2.353000000     2.351000000
H    -6.467000000     1.716000000     1.647000000
H    -6.241000000     3.171000000     1.996000000
O    -7.614000000     5.545000000    -3.672000000
H    -7.167000000     5.623000000    -2.828000000
H    -6.985000000     5.885000000    -4.308000000
O    -9.081000000     2.340000000    -1.067000000
H    -8.295000000     2.737000000    -1.444000000
H    -9.272000000     2.874000000    -0.296000000
