215
-1453.53362
C    -4.078000000     0.597000000    -3.636000000
H    -3.951000000    -0.458000000    -3.865000000
C    -2.962000000     1.425000000    -3.708000000
C    -3.109000000     2.781000000    -3.391000000
H    -2.268000000     3.468000000    -3.425000000
C    -1.562000000     0.840000000    -3.919000000
O    -1.536000000    -0.268000000    -4.733000000
H    -1.238000000     0.530000000    -2.915000000
O    -0.726000000     1.910000000    -4.451000000
C     0.587000000     2.070000000    -4.077000000
C     0.949000000     3.096000000    -3.267000000
H     0.187000000     3.822000000    -2.994000000
C     2.231000000     3.151000000    -2.721000000
O     2.526000000     4.054000000    -1.677000000
C     3.163000000     2.064000000    -2.972000000
C     4.544000000     1.972000000    -2.378000000
H     5.253000000     1.541000000    -3.088000000
C     4.654000000     1.239000000    -1.031000000
C     4.850000000    -0.138000000    -0.969000000
H     5.054000000    -0.797000000    -1.809000000
H     4.936000000     2.982000000    -2.243000000
C     2.789000000     1.054000000    -3.813000000
H     3.389000000     0.148000000    -3.800000000
C     1.523000000     1.023000000    -4.386000000
C     1.184000000    -0.076000000    -5.334000000
H     2.140000000    -0.416000000    -5.739000000
H     0.627000000     0.199000000    -6.232000000
C     0.580000000    -1.287000000    -4.647000000
C     1.439000000    -2.274000000    -4.055000000
H     2.515000000    -2.121000000    -4.064000000
C    -0.766000000    -1.302000000    -4.349000000
C    -1.280000000    -2.312000000    -3.635000000
H    -2.319000000    -2.309000000    -3.317000000
C    -0.503000000    -3.432000000    -3.279000000
O    -1.109000000    -4.357000000    -2.447000000
C    -0.825000000    -4.157000000    -1.074000000
C    -2.200000000    -4.195000000    -0.272000000
C    -2.175000000    -4.072000000     1.119000000
H    -1.230000000    -4.169000000     1.646000000
C    -3.443000000    -4.176000000    -0.946000000
H    -3.579000000    -4.295000000    -2.018000000
O     0.232000000    -5.062000000    -0.533000000
H    -0.430000000    -3.148000000    -0.883000000
C     0.897000000    -3.319000000    -3.343000000
C     1.749000000    -4.448000000    -2.841000000
H     2.550000000    -4.558000000    -3.576000000
H     1.134000000    -5.340000000    -2.973000000
C     2.273000000    -4.249000000    -1.395000000
C     3.478000000    -3.558000000    -1.164000000
H     3.997000000    -3.227000000    -2.060000000
C     1.496000000    -4.597000000    -0.302000000
C     1.945000000    -4.301000000     0.951000000
H     1.216000000    -4.533000000     1.723000000
C     3.030000000    -3.452000000     1.172000000
O     3.254000000    -2.889000000     2.437000000
C     3.088000000    -1.488000000     2.586000000
C     2.227000000    -1.220000000     3.783000000
C     1.600000000    -2.256000000     4.385000000
H     1.712000000    -3.286000000     4.056000000
C     2.181000000     0.105000000     4.344000000
H     2.910000000     0.868000000     4.084000000
O     4.351000000    -0.742000000     2.530000000
H     2.662000000    -1.098000000     1.650000000
C     3.934000000    -3.194000000     0.130000000
C     5.164000000    -2.362000000     0.275000000
H     5.918000000    -2.668000000    -0.454000000
H     5.699000000    -2.539000000     1.211000000
C     4.827000000    -0.833000000     0.222000000
C     4.559000000    -0.085000000     1.358000000
C     4.477000000     1.304000000     1.323000000
H     4.244000000     1.892000000     2.207000000
C     4.459000000     1.963000000     0.138000000
O     4.042000000     3.302000000     0.064000000
C     2.646000000     3.456000000    -0.413000000
H     2.163000000     2.469000000    -0.470000000
C     1.793000000     4.300000000     0.584000000
C     0.469000000     4.606000000     0.375000000
H     0.014000000     4.285000000    -0.559000000
C     2.355000000     4.673000000     1.857000000
H     3.311000000     4.331000000     2.246000000
C     1.625000000     5.434000000     2.772000000
O     2.270000000     5.683000000     4.036000000
C     0.261000000     5.758000000     2.574000000
H    -0.268000000     6.451000000     3.222000000
C    -0.258000000     5.401000000     1.319000000
O    -1.469000000     5.961000000     0.961000000
C    -1.843000000     5.999000000    -0.336000000
C    -2.958000000     5.297000000    -0.851000000
H    -3.507000000     4.675000000    -0.149000000
C    -1.183000000     6.872000000    -1.116000000
H    -0.450000000     7.510000000    -0.629000000
C    -1.548000000     6.993000000    -2.404000000
H    -0.932000000     7.607000000    -3.057000000
C    -2.665000000     6.322000000    -2.884000000
H    -2.967000000     6.501000000    -3.913000000
C    -3.334000000     5.372000000    -2.146000000
O    -4.387000000     4.636000000    -2.713000000
C    -4.325000000     3.352000000    -3.094000000
C    -5.398000000     2.541000000    -2.777000000
H    -6.221000000     2.935000000    -2.186000000
C    -5.289000000     1.200000000    -3.173000000
O    -6.415000000     0.374000000    -3.070000000
C    -6.379000000    -1.037000000    -3.106000000
C    -6.118000000    -1.750000000    -1.939000000
H    -6.087000000    -1.231000000    -0.985000000
C    -6.472000000    -1.636000000    -4.335000000
H    -6.793000000    -1.044000000    -5.189000000
C    -6.361000000    -3.025000000    -4.456000000
H    -6.597000000    -3.528000000    -5.390000000
C    -6.230000000    -3.800000000    -3.314000000
H    -6.200000000    -4.887000000    -3.326000000
C    -6.013000000    -3.129000000    -2.082000000
O    -5.823000000    -3.869000000    -0.989000000
C    -4.658000000    -3.929000000    -0.280000000
C    -4.601000000    -3.779000000     1.113000000
H    -5.545000000    -3.668000000     1.641000000
C    -3.399000000    -3.819000000     1.839000000
O    -3.438000000    -3.728000000     3.176000000
C    -2.481000000    -4.282000000     3.934000000
C    -1.611000000    -3.373000000     4.492000000
H    -1.559000000    -2.329000000     4.193000000
C    -2.407000000    -5.624000000     4.154000000
H    -3.172000000    -6.258000000     3.714000000
C    -1.456000000    -6.133000000     5.093000000
H    -1.347000000    -7.207000000     5.220000000
C    -0.655000000    -5.257000000     5.808000000
H     0.114000000    -5.610000000     6.491000000
C    -0.716000000    -3.888000000     5.521000000
O     0.198000000    -3.131000000     6.200000000
C     0.809000000    -2.105000000     5.513000000
C     0.787000000    -0.789000000     6.052000000
H     0.377000000    -0.707000000     7.055000000
C     1.337000000     0.296000000     5.446000000
O     1.218000000     1.479000000     6.177000000
C     2.115000000     2.560000000     6.102000000
C     3.180000000     2.770000000     6.983000000
H     3.429000000     2.012000000     7.720000000
C     3.970000000     3.910000000     6.793000000
H     4.797000000     4.020000000     7.491000000
C     3.685000000     4.820000000     5.823000000
H     4.295000000     5.718000000     5.771000000
C     2.514000000     4.677000000     4.996000000
C     1.759000000     3.549000000     5.126000000
H     0.845000000     3.421000000     4.552000000
C    -1.718000000     1.501000000     0.188000000
H    -2.217000000     2.435000000    -0.056000000
C    -0.466000000     1.148000000    -0.370000000
H    -0.046000000     1.871000000    -1.065000000
C     0.083000000    -0.033000000    -0.027000000
H     1.114000000    -0.289000000    -0.369000000
C    -0.621000000    -0.903000000     0.765000000
H    -0.239000000    -1.895000000     0.993000000
C    -1.858000000    -0.557000000     1.329000000
H    -2.395000000    -1.196000000     2.025000000
C    -2.381000000     0.675000000     1.035000000
C    -3.698000000     1.049000000     1.662000000
O    -4.430000000     0.206000000     2.089000000
O    -4.055000000     2.202000000     1.592000000
O    -9.891000000     0.865000000     2.254000000
H    -9.563000000     1.764000000     2.239000000
H   -10.320000000     0.752000000     1.406000000
O    -4.031000000    -1.166000000     4.461000000
H    -4.358000000    -1.968000000     4.052000000
H    -4.053000000    -0.514000000     3.761000000
O    -6.626000000    -1.001000000     1.610000000
H    -5.824000000    -0.531000000     1.836000000
H    -7.085000000    -0.416000000     1.007000000
O    -2.142000000     3.721000000     2.973000000
H    -1.987000000     4.614000000     2.664000000
H    -2.904000000     3.424000000     2.476000000
O    -2.276000000     1.580000000     4.912000000
H    -1.948000000     2.166000000     4.229000000
H    -3.227000000     1.681000000     4.877000000
O    -8.574000000    -3.466000000    -0.114000000
H    -7.704000000    -3.109000000     0.067000000
H    -8.740000000    -3.238000000    -1.029000000
O    -7.788000000    -2.407000000     4.029000000
H    -7.210000000    -2.037000000     3.362000000
H    -8.664000000    -2.347000000     3.648000000
O    -2.532000000     6.862000000     4.915000000
H    -2.500000000     5.914000000     5.046000000
H    -1.679000000     7.174000000     5.217000000
O    -6.254000000     4.814000000     2.282000000
H    -5.821000000     4.102000000     2.753000000
H    -5.916000000     5.611000000     2.690000000
O    -4.398000000     0.719000000     6.984000000
H    -4.506000000    -0.016000000     6.380000000
H    -4.006000000     0.330000000     7.766000000
O    -4.894000000     3.402000000     6.276000000
H    -4.814000000     2.485000000     6.540000000
H    -5.015000000     3.368000000     5.327000000
O    -6.109000000     3.114000000     0.137000000
H    -6.555000000     3.672000000     0.773000000
H    -5.284000000     2.879000000     0.561000000
O    -1.445000000     1.764000000     7.532000000
H    -2.015000000     1.134000000     7.091000000
H    -0.833000000     2.050000000     6.853000000
O    -8.790000000     2.425000000     5.741000000
H    -9.272000000     1.785000000     6.265000000
H    -8.264000000     1.896000000     5.141000000
O    -7.646000000     0.551000000     4.003000000
H    -7.358000000    -0.280000000     4.381000000
H    -8.315000000     0.304000000     3.364000000
O    -5.853000000     2.540000000     3.685000000
H    -5.270000000     2.130000000     3.046000000
H    -6.529000000     1.883000000     3.848000000
O    -9.119000000     3.902000000     2.127000000
H    -8.288000000     4.293000000     2.398000000
H    -9.096000000     3.928000000     1.170000000
O    -7.774000000     0.844000000    -0.436000000
H    -7.257000000     1.633000000    -0.275000000
H    -7.415000000     0.484000000    -1.246000000
O    -2.105000000     4.689000000     6.155000000
H    -2.812000000     4.094000000     6.405000000
H    -1.513000000     4.687000000     6.908000000
