215
-1433.36954
C    -3.817000000     1.123000000    -3.728000000
H    -3.919000000     0.117000000    -4.127000000
C    -2.581000000     1.809000000    -3.649000000
C    -2.641000000     3.170000000    -3.162000000
H    -1.686000000     3.690000000    -3.170000000
C    -1.256000000     1.064000000    -4.046000000
O    -1.536000000    -0.144000000    -4.891000000
H    -0.806000000     0.622000000    -3.145000000
O    -0.281000000     1.925000000    -4.593000000
C     1.032000000     1.763000000    -4.281000000
C     1.496000000     2.661000000    -3.402000000
H     0.889000000     3.542000000    -3.214000000
C     2.751000000     2.585000000    -2.735000000
O     2.994000000     3.505000000    -1.741000000
C     3.538000000     1.434000000    -3.055000000
C     4.913000000     1.301000000    -2.384000000
H     5.532000000     0.714000000    -3.066000000
C     4.732000000     0.598000000    -1.079000000
C     4.878000000    -0.746000000    -0.959000000
H     5.080000000    -1.308000000    -1.867000000
H     5.396000000     2.278000000    -2.306000000
C     3.056000000     0.492000000    -3.979000000
H     3.633000000    -0.394000000    -4.233000000
C     1.757000000     0.598000000    -4.539000000
C     1.152000000    -0.454000000    -5.469000000
H     1.873000000    -0.873000000    -6.174000000
H     0.365000000    -0.068000000    -6.120000000
C     0.470000000    -1.512000000    -4.682000000
C     1.080000000    -2.743000000    -4.156000000
H     2.140000000    -2.952000000    -4.276000000
C    -0.873000000    -1.306000000    -4.476000000
C    -1.611000000    -2.270000000    -3.720000000
H    -2.650000000    -2.130000000    -3.434000000
C    -1.034000000    -3.384000000    -3.147000000
O    -1.773000000    -4.077000000    -2.196000000
C    -1.557000000    -3.888000000    -0.791000000
C    -2.902000000    -3.793000000    -0.031000000
C    -2.958000000    -4.202000000     1.357000000
H    -2.007000000    -4.402000000     1.843000000
C    -4.135000000    -3.361000000    -0.648000000
H    -4.162000000    -3.033000000    -1.684000000
O    -0.677000000    -4.933000000    -0.341000000
H    -1.023000000    -2.928000000    -0.730000000
C     0.299000000    -3.650000000    -3.352000000
C     0.995000000    -4.834000000    -2.691000000
H     1.873000000    -5.071000000    -3.296000000
H     0.311000000    -5.686000000    -2.685000000
C     1.444000000    -4.481000000    -1.315000000
C     2.706000000    -3.896000000    -1.216000000
H     3.350000000    -3.684000000    -2.066000000
C     0.605000000    -4.563000000    -0.210000000
C     0.961000000    -4.157000000     1.028000000
H     0.269000000    -4.122000000     1.866000000
C     2.296000000    -3.688000000     1.216000000
O     2.620000000    -3.218000000     2.506000000
C     2.674000000    -1.794000000     2.781000000
C     2.160000000    -1.430000000     4.196000000
C     1.130000000    -2.171000000     4.792000000
H     0.922000000    -3.096000000     4.261000000
C     2.526000000    -0.268000000     4.781000000
H     3.154000000     0.424000000     4.226000000
O     3.977000000    -1.259000000     2.563000000
H     1.957000000    -1.248000000     2.150000000
C     3.190000000    -3.563000000     0.078000000
C     4.626000000    -2.956000000     0.235000000
H     5.274000000    -3.343000000    -0.554000000
H     5.059000000    -3.413000000     1.128000000
C     4.637000000    -1.438000000     0.242000000
C     4.340000000    -0.715000000     1.394000000
C     4.198000000     0.679000000     1.320000000
H     3.827000000     1.289000000     2.139000000
C     4.413000000     1.266000000     0.123000000
O     4.254000000     2.674000000     0.085000000
C     2.977000000     3.090000000    -0.360000000
H     2.358000000     2.181000000    -0.359000000
C     2.358000000     4.156000000     0.528000000
C     1.257000000     4.928000000     0.105000000
H     0.960000000     4.953000000    -0.941000000
C     2.837000000     4.264000000     1.830000000
H     3.655000000     3.758000000     2.336000000
C     2.186000000     5.147000000     2.768000000
O     2.464000000     5.241000000     4.048000000
C     1.106000000     5.949000000     2.287000000
H     0.647000000     6.515000000     3.094000000
C     0.653000000     5.779000000     0.996000000
O    -0.365000000     6.604000000     0.611000000
C    -0.953000000     6.599000000    -0.641000000
C    -2.109000000     5.862000000    -0.811000000
H    -2.523000000     5.284000000     0.011000000
C    -0.446000000     7.446000000    -1.645000000
H     0.483000000     7.977000000    -1.450000000
C    -1.081000000     7.565000000    -2.870000000
H    -0.703000000     8.270000000    -3.606000000
C    -2.327000000     6.795000000    -3.047000000
H    -2.727000000     6.715000000    -4.054000000
C    -2.863000000     5.930000000    -2.045000000
O    -3.932000000     5.037000000    -2.314000000
C    -3.832000000     3.766000000    -2.773000000
C    -5.020000000     3.074000000    -2.922000000
H    -5.954000000     3.595000000    -2.728000000
C    -4.971000000     1.722000000    -3.279000000
O    -6.175000000     1.085000000    -3.521000000
C    -6.355000000    -0.255000000    -3.225000000
C    -6.359000000    -0.751000000    -1.901000000
H    -6.125000000    -0.135000000    -1.037000000
C    -6.548000000    -1.118000000    -4.288000000
H    -6.626000000    -0.719000000    -5.296000000
C    -6.626000000    -2.516000000    -4.135000000
H    -7.006000000    -3.129000000    -4.948000000
C    -6.684000000    -2.972000000    -2.817000000
H    -6.756000000    -4.050000000    -2.695000000
C    -6.532000000    -2.133000000    -1.693000000
O    -6.480000000    -2.735000000    -0.447000000
C    -5.297000000    -3.271000000     0.075000000
C    -5.302000000    -3.687000000     1.396000000
H    -6.283000000    -3.715000000     1.864000000
C    -4.153000000    -4.148000000     2.112000000
O    -4.226000000    -4.382000000     3.430000000
C    -3.150000000    -4.480000000     4.244000000
C    -2.654000000    -3.452000000     4.953000000
H    -3.187000000    -2.505000000     4.970000000
C    -2.412000000    -5.664000000     4.261000000
H    -2.622000000    -6.398000000     3.487000000
C    -1.229000000    -5.763000000     5.016000000
H    -0.628000000    -6.666000000     4.950000000
C    -0.823000000    -4.706000000     5.741000000
H     0.173000000    -4.712000000     6.176000000
C    -1.500000000    -3.507000000     5.771000000
O    -0.832000000    -2.369000000     6.376000000
C     0.354000000    -1.713000000     5.918000000
C     0.831000000    -0.606000000     6.622000000
H     0.239000000    -0.166000000     7.421000000
C     1.889000000     0.140000000     6.026000000
O     2.199000000     1.274000000     6.733000000
C     2.991000000     2.238000000     6.087000000
C     4.333000000     2.337000000     6.412000000
H     4.827000000     1.575000000     7.009000000
C     5.141000000     3.321000000     5.845000000
H     6.217000000     3.443000000     5.946000000
C     4.482000000     4.357000000     5.133000000
H     5.043000000     5.193000000     4.723000000
C     3.121000000     4.222000000     4.747000000
C     2.386000000     3.214000000     5.259000000
H     1.343000000     3.078000000     4.986000000
C    -1.637000000     1.219000000    -0.290000000
H    -1.707000000     2.194000000    -0.765000000
C    -0.350000000     0.666000000    -0.361000000
H     0.345000000     1.149000000    -1.042000000
C     0.007000000    -0.376000000     0.469000000
H     0.986000000    -0.822000000     0.528000000
C    -0.966000000    -0.895000000     1.306000000
H    -0.654000000    -1.759000000     1.888000000
C    -2.249000000    -0.404000000     1.364000000
H    -3.075000000    -0.876000000     1.890000000
C    -2.555000000     0.761000000     0.684000000
C    -3.948000000     1.374000000     0.702000000
O    -4.877000000     0.829000000     1.258000000
O    -4.138000000     2.379000000     0.076000000
O    -8.477000000     4.189000000    -1.920000000
H    -9.326000000     3.855000000    -2.209000000
H    -8.130000000     3.502000000    -1.351000000
O    -2.586000000     0.089000000     6.267000000
H    -2.195000000    -0.628000000     6.767000000
H    -1.841000000     0.627000000     5.997000000
O    -6.667000000     4.986000000     4.608000000
H    -7.121000000     5.625000000     5.157000000
H    -7.278000000     4.807000000     3.893000000
O    -7.723000000    -1.761000000     4.964000000
H    -7.697000000    -1.944000000     4.025000000
H    -8.173000000    -0.919000000     5.032000000
O    -6.892000000    -0.923000000     2.249000000
H    -6.273000000    -0.346000000     1.802000000
H    -6.673000000    -1.800000000     1.933000000
O    -3.878000000     4.042000000     2.636000000
H    -4.547000000     3.436000000     2.955000000
H    -3.841000000     3.883000000     1.693000000
O    -1.219000000     3.494000000     2.936000000
H    -0.679000000     3.885000000     2.249000000
H    -2.068000000     3.928000000     2.849000000
O    -0.676000000     1.945000000     6.304000000
H    -0.372000000     1.690000000     5.433000000
H    -1.183000000     2.744000000     6.157000000
O    -5.595000000     2.047000000     3.540000000
H    -5.097000000     1.645000000     4.252000000
H    -5.352000000     1.543000000     2.764000000
O    -8.466000000     1.083000000     4.923000000
H    -7.934000000     1.835000000     5.186000000
H    -8.723000000     1.276000000     4.022000000
O    -5.360000000     4.800000000     0.163000000
H    -4.624000000     4.391000000    -0.293000000
H    -5.741000000     4.094000000     0.684000000
O    -0.458000000     0.993000000     3.741000000
H    -0.359000000     0.476000000     2.941000000
H    -0.703000000     1.865000000     3.433000000
O    -9.086000000     0.560000000     2.036000000
H    -9.377000000     0.541000000     1.124000000
H    -8.420000000    -0.126000000     2.089000000
O    -4.787000000     1.849000000     6.787000000
H    -4.065000000     1.468000000     6.287000000
H    -5.291000000     1.094000000     7.091000000
O    -7.639000000     3.320000000     2.316000000
H    -7.400000000     3.196000000     1.397000000
H    -7.064000000     2.724000000     2.796000000
O    -7.122000000     2.216000000    -0.202000000
H    -6.213000000     1.960000000    -0.050000000
H    -7.495000000     1.492000000    -0.704000000
O    -9.568000000     0.820000000    -0.868000000
H   -10.126000000     1.532000000    -0.553000000
H    -9.811000000     0.715000000    -1.788000000
O    -7.310000000     7.021000000     0.307000000
H    -6.506000000     6.515000000     0.193000000
H    -7.531000000     7.320000000    -0.575000000
O    -3.800000000     6.185000000     4.391000000
H    -4.656000000     6.474000000     4.075000000
H    -3.708000000     5.294000000     4.052000000
