215
-1444.71253
C    -3.934000000     1.925000000    -3.034000000
H    -4.159000000     0.865000000    -3.115000000
C    -2.623000000     2.381000000    -3.270000000
C    -2.279000000     3.761000000    -3.100000000
H    -1.261000000     4.103000000    -3.266000000
C    -1.585000000     1.281000000    -3.659000000
O    -2.227000000     0.208000000    -4.443000000
H    -1.161000000     0.867000000    -2.732000000
O    -0.664000000     1.890000000    -4.514000000
C     0.659000000     1.712000000    -4.366000000
C     1.344000000     2.613000000    -3.587000000
H     0.725000000     3.452000000    -3.280000000
C     2.600000000     2.332000000    -3.059000000
O     3.050000000     3.094000000    -2.012000000
C     3.195000000     1.070000000    -3.421000000
C     4.557000000     0.764000000    -2.928000000
H     5.035000000     0.090000000    -3.643000000
C     4.587000000     0.067000000    -1.574000000
C     4.524000000    -1.348000000    -1.609000000
H     4.499000000    -1.883000000    -2.555000000
H     5.146000000     1.684000000    -2.943000000
C     2.542000000     0.177000000    -4.284000000
H     3.014000000    -0.730000000    -4.652000000
C     1.234000000     0.455000000    -4.732000000
C     0.423000000    -0.561000000    -5.523000000
H     1.134000000    -1.168000000    -6.087000000
H    -0.184000000     0.022000000    -6.219000000
C    -0.420000000    -1.404000000    -4.556000000
C     0.029000000    -2.631000000    -4.160000000
H     1.027000000    -2.988000000    -4.405000000
C    -1.746000000    -1.033000000    -4.167000000
C    -2.440000000    -1.824000000    -3.258000000
H    -3.410000000    -1.518000000    -2.875000000
C    -1.920000000    -3.024000000    -2.841000000
O    -2.550000000    -3.673000000    -1.837000000
C    -2.074000000    -3.514000000    -0.485000000
C    -3.286000000    -3.394000000     0.486000000
C    -3.303000000    -4.134000000     1.654000000
H    -2.539000000    -4.803000000     2.042000000
C    -4.282000000    -2.468000000     0.122000000
H    -4.220000000    -1.779000000    -0.716000000
O    -1.262000000    -4.636000000    -0.169000000
H    -1.479000000    -2.590000000    -0.436000000
C    -0.679000000    -3.448000000    -3.329000000
C    -0.035000000    -4.789000000    -2.891000000
H     0.657000000    -5.203000000    -3.628000000
H    -0.770000000    -5.578000000    -2.718000000
C     0.699000000    -4.474000000    -1.578000000
C     2.067000000    -4.211000000    -1.636000000
H     2.546000000    -4.089000000    -2.604000000
C     0.104000000    -4.489000000    -0.336000000
C     0.749000000    -4.226000000     0.814000000
H     0.135000000    -4.247000000     1.711000000
C     2.108000000    -3.965000000     0.726000000
O     2.640000000    -3.719000000     1.917000000
C     2.852000000    -2.330000000     2.288000000
C     2.432000000    -2.115000000     3.677000000
C     1.243000000    -2.674000000     4.230000000
H     0.648000000    -3.294000000     3.564000000
C     3.073000000    -1.195000000     4.417000000
H     3.963000000    -0.693000000     4.047000000
O     4.215000000    -1.884000000     1.953000000
H     2.228000000    -1.738000000     1.602000000
C     2.813000000    -3.937000000    -0.450000000
C     4.293000000    -3.521000000    -0.587000000
H     4.707000000    -3.956000000    -1.499000000
H     4.998000000    -3.959000000     0.122000000
C     4.416000000    -2.040000000    -0.456000000
C     4.349000000    -1.314000000     0.699000000
C     4.520000000     0.047000000     0.789000000
H     4.420000000     0.663000000     1.679000000
C     4.603000000     0.792000000    -0.366000000
O     4.422000000     2.156000000    -0.314000000
C     3.041000000     2.535000000    -0.603000000
H     2.370000000     1.666000000    -0.536000000
C     2.555000000     3.706000000     0.264000000
C     1.786000000     4.796000000    -0.172000000
H     1.497000000     5.007000000    -1.198000000
C     2.728000000     3.402000000     1.653000000
H     3.203000000     2.478000000     1.973000000
C     2.305000000     4.349000000     2.531000000
O     2.651000000     4.230000000     3.862000000
C     1.664000000     5.513000000     2.098000000
H     1.277000000     6.187000000     2.859000000
C     1.408000000     5.750000000     0.774000000
O     0.822000000     6.957000000     0.490000000
C     0.228000000     7.109000000    -0.702000000
C    -1.054000000     6.561000000    -0.981000000
H    -1.665000000     6.254000000    -0.137000000
C     0.870000000     7.818000000    -1.801000000
H     1.831000000     8.279000000    -1.588000000
C     0.229000000     7.823000000    -3.060000000
H     0.615000000     8.477000000    -3.838000000
C    -1.068000000     7.338000000    -3.258000000
H    -1.710000000     7.355000000    -4.135000000
C    -1.679000000     6.610000000    -2.259000000
O    -3.000000000     6.052000000    -2.439000000
C    -3.232000000     4.683000000    -2.640000000
C    -4.464000000     4.159000000    -2.268000000
H    -5.169000000     4.897000000    -1.894000000
C    -4.803000000     2.815000000    -2.445000000
O    -6.124000000     2.421000000    -2.186000000
C    -6.477000000     1.114000000    -2.042000000
C    -6.286000000     0.512000000    -0.835000000
H    -5.829000000     1.133000000    -0.069000000
C    -7.036000000     0.362000000    -3.050000000
H    -7.395000000     0.888000000    -3.930000000
C    -7.275000000    -0.973000000    -2.867000000
H    -7.734000000    -1.518000000    -3.689000000
C    -6.973000000    -1.594000000    -1.635000000
H    -7.045000000    -2.676000000    -1.550000000
C    -6.475000000    -0.845000000    -0.611000000
O    -6.324000000    -1.311000000     0.735000000
C    -5.313000000    -2.263000000     1.016000000
C    -5.382000000    -2.974000000     2.231000000
H    -6.225000000    -2.777000000     2.888000000
C    -4.418000000    -3.937000000     2.555000000
O    -4.358000000    -4.673000000     3.756000000
C    -3.244000000    -4.732000000     4.558000000
C    -2.457000000    -3.601000000     4.828000000
H    -2.795000000    -2.618000000     4.510000000
C    -2.838000000    -6.003000000     4.992000000
H    -3.300000000    -6.949000000     4.720000000
C    -1.647000000    -6.083000000     5.712000000
H    -1.293000000    -7.043000000     6.079000000
C    -0.861000000    -4.980000000     5.993000000
H     0.065000000    -5.005000000     6.563000000
C    -1.354000000    -3.748000000     5.593000000
O    -0.610000000    -2.687000000     5.939000000
C     0.649000000    -2.228000000     5.428000000
C     1.337000000    -1.186000000     6.159000000
H     0.921000000    -0.744000000     7.060000000
C     2.563000000    -0.743000000     5.671000000
O     3.359000000     0.205000000     6.394000000
C     3.868000000     1.300000000     5.730000000
C     5.246000000     1.501000000     5.665000000
H     5.865000000     0.680000000     6.017000000
C     5.762000000     2.542000000     4.877000000
H     6.821000000     2.787000000     4.892000000
C     4.914000000     3.463000000     4.279000000
H     5.308000000     4.288000000     3.690000000
C     3.541000000     3.298000000     4.443000000
C     3.013000000     2.152000000     5.112000000
H     1.934000000     2.139000000     5.248000000
C    -1.769000000     1.822000000     0.119000000
H    -2.209000000     2.737000000    -0.272000000
C    -0.548000000     1.271000000    -0.287000000
H     0.058000000     1.727000000    -1.065000000
C    -0.165000000     0.021000000     0.072000000
H     0.705000000    -0.405000000    -0.391000000
C    -0.882000000    -0.717000000     1.040000000
H    -0.351000000    -1.638000000     1.266000000
C    -2.118000000    -0.238000000     1.424000000
H    -2.689000000    -0.784000000     2.171000000
C    -2.544000000     1.057000000     1.056000000
C    -3.807000000     1.642000000     1.590000000
O    -4.471000000     1.066000000     2.399000000
O    -4.258000000     2.685000000     1.136000000
O    -5.760000000     5.435000000     3.761000000
H    -6.184000000     4.620000000     3.493000000
H    -5.068000000     5.570000000     3.114000000
O    -1.091000000     1.441000000     5.379000000
H    -0.463000000     1.158000000     4.715000000
H    -1.881000000     1.660000000     4.884000000
O    -2.205000000     4.623000000     6.156000000
H    -2.697000000     3.861000000     5.850000000
H    -2.870000000     5.299000000     6.289000000
O    -9.362000000     3.218000000     2.955000000
H    -9.400000000     2.881000000     3.850000000
H    -8.431000000     3.206000000     2.733000000
O    -7.206000000     3.643000000     5.937000000
H    -6.598000000     3.915000000     6.625000000
H    -7.943000000     4.249000000     6.016000000
O    -6.338000000    -0.104000000     3.707000000
H    -5.562000000     0.132000000     3.199000000
H    -6.118000000    -0.948000000     4.102000000
O    -3.292000000     7.275000000     2.669000000
H    -4.227000000     7.463000000     2.583000000
H    -3.163000000     6.471000000     2.166000000
O    -1.236000000     3.836000000     3.048000000
H    -1.604000000     4.607000000     2.616000000
H    -1.982000000     3.430000000     3.489000000
O    -5.403000000    -1.808000000     5.615000000
H    -5.130000000    -2.665000000     5.942000000
H    -6.359000000    -1.825000000     5.667000000
O     0.274000000     5.365000000     5.162000000
H     0.352000000     4.700000000     4.477000000
H    -0.605000000     5.237000000     5.520000000
O    -3.401000000     2.386000000     4.635000000
H    -3.804000000     1.934000000     3.893000000
H    -3.838000000     2.019000000     5.404000000
O    -3.795000000     5.054000000     1.274000000
H    -3.921000000     5.229000000     0.341000000
H    -4.031000000     4.133000000     1.380000000
O     0.023000000     1.078000000     3.123000000
H    -0.060000000     0.581000000     2.309000000
H    -0.214000000     1.974000000     2.882000000
O    -8.595000000     1.616000000     5.066000000
H    -8.166000000     2.449000000     5.260000000
H    -7.955000000     1.134000000     4.542000000
O    -6.669000000     2.925000000     2.471000000
H    -6.465000000     2.466000000     3.286000000
H    -5.883000000     2.821000000     1.935000000
O    -4.729000000     0.843000000     6.647000000
H    -4.089000000     0.636000000     7.329000000
H    -4.784000000     0.045000000     6.121000000
O    -8.446000000     3.377000000     0.009000000
H    -7.972000000     2.750000000    -0.538000000
H    -7.876000000     3.515000000     0.765000000
O    -9.472000000     0.315000000     1.904000000
H    -9.711000000     0.146000000     0.993000000
H    -9.342000000     1.263000000     1.946000000
O    -4.698000000     6.065000000     6.280000000
H    -5.317000000     6.742000000     6.552000000
H    -4.997000000     5.802000000     5.410000000
