215
-1463.68221
C    -3.200000000    -0.111000000    -4.332000000
H    -3.721000000    -0.884000000    -3.773000000
C    -1.830000000    -0.089000000    -4.366000000
C    -1.253000000     1.057000000    -4.907000000
H    -0.167000000     1.113000000    -4.930000000
C    -0.974000000    -1.168000000    -3.752000000
O    -1.726000000    -2.383000000    -3.749000000
H    -0.739000000    -0.963000000    -2.697000000
O     0.218000000    -1.323000000    -4.564000000
C     1.408000000    -1.545000000    -3.920000000
C     2.247000000    -0.467000000    -3.719000000
H     1.934000000     0.461000000    -4.190000000
C     3.418000000    -0.546000000    -3.014000000
O     4.167000000     0.612000000    -2.843000000
C     3.752000000    -1.797000000    -2.549000000
C     4.996000000    -1.963000000    -1.663000000
H     5.442000000    -2.958000000    -1.601000000
C     4.579000000    -1.502000000    -0.231000000
C     4.163000000    -2.462000000     0.651000000
H     4.226000000    -3.507000000     0.362000000
H     5.839000000    -1.425000000    -2.102000000
C     2.906000000    -2.940000000    -2.739000000
H     3.176000000    -3.892000000    -2.289000000
C     1.721000000    -2.813000000    -3.425000000
C     0.753000000    -3.998000000    -3.656000000
H     1.380000000    -4.870000000    -3.459000000
H     0.284000000    -3.985000000    -4.642000000
C    -0.336000000    -4.048000000    -2.616000000
C    -0.108000000    -4.782000000    -1.459000000
H     0.800000000    -5.352000000    -1.278000000
C    -1.509000000    -3.287000000    -2.745000000
C    -2.522000000    -3.491000000    -1.793000000
H    -3.481000000    -3.008000000    -1.961000000
C    -2.261000000    -4.149000000    -0.571000000
O    -3.166000000    -4.057000000     0.476000000
C    -2.752000000    -3.141000000     1.501000000
C    -3.887000000    -2.142000000     1.732000000
C    -3.997000000    -1.538000000     3.012000000
H    -3.286000000    -1.888000000     3.756000000
C    -4.722000000    -1.668000000     0.668000000
H    -4.593000000    -2.079000000    -0.330000000
O    -2.352000000    -3.982000000     2.607000000
H    -1.889000000    -2.550000000     1.159000000
C    -0.996000000    -4.805000000    -0.399000000
C    -0.661000000    -5.608000000     0.888000000
H     0.063000000    -6.368000000     0.588000000
H    -1.537000000    -6.078000000     1.340000000
C    -0.118000000    -4.673000000     1.952000000
C     1.242000000    -4.540000000     1.960000000
H     1.925000000    -5.081000000     1.309000000
C    -0.972000000    -4.038000000     2.804000000
C    -0.438000000    -3.078000000     3.624000000
H    -1.058000000    -2.464000000     4.273000000
C     0.948000000    -2.846000000     3.647000000
O     1.399000000    -1.829000000     4.407000000
C     1.780000000    -0.607000000     3.585000000
C     1.160000000     0.631000000     4.309000000
C     0.305000000     0.608000000     5.428000000
H    -0.050000000    -0.354000000     5.791000000
C     1.578000000     1.902000000     3.837000000
H     2.325000000     1.984000000     3.051000000
O     3.187000000    -0.553000000     3.530000000
H     1.425000000    -0.627000000     2.544000000
C     1.764000000    -3.630000000     2.888000000
C     3.253000000    -3.332000000     2.833000000
H     3.863000000    -4.148000000     2.440000000
H     3.602000000    -3.201000000     3.859000000
C     3.701000000    -2.214000000     1.939000000
C     3.719000000    -0.911000000     2.349000000
C     4.157000000     0.076000000     1.484000000
H     4.186000000     1.118000000     1.790000000
C     4.614000000    -0.210000000     0.250000000
O     5.013000000     0.835000000    -0.601000000
C     3.984000000     1.282000000    -1.560000000
H     2.991000000     1.064000000    -1.139000000
C     3.857000000     2.800000000    -1.691000000
C     3.349000000     3.439000000    -2.862000000
H     3.056000000     2.762000000    -3.661000000
C     4.220000000     3.622000000    -0.665000000
H     4.573000000     3.253000000     0.295000000
C     4.028000000     5.016000000    -0.694000000
O     4.406000000     5.772000000     0.420000000
C     3.370000000     5.599000000    -1.767000000
H     3.187000000     6.670000000    -1.769000000
C     3.130000000     4.800000000    -2.882000000
O     2.531000000     5.363000000    -3.973000000
C     1.918000000     4.552000000    -4.934000000
C     0.536000000     4.301000000    -4.883000000
H    -0.144000000     4.515000000    -4.063000000
C     2.647000000     4.125000000    -6.064000000
H     3.696000000     4.410000000    -6.020000000
C     2.038000000     3.357000000    -7.055000000
H     2.579000000     3.068000000    -7.952000000
C     0.726000000     3.030000000    -6.921000000
H     0.136000000     2.487000000    -7.656000000
C    -0.037000000     3.524000000    -5.897000000
O    -1.426000000     3.294000000    -5.811000000
C    -1.984000000     2.204000000    -5.303000000
C    -3.367000000     2.167000000    -5.325000000
H    -3.988000000     3.030000000    -5.552000000
C    -3.943000000     0.990000000    -4.792000000
O    -5.265000000     1.021000000    -4.523000000
C    -5.923000000     0.217000000    -3.587000000
C    -5.690000000     0.455000000    -2.215000000
H    -5.101000000     1.311000000    -1.897000000
C    -6.878000000    -0.655000000    -4.094000000
H    -6.859000000    -0.833000000    -5.166000000
C    -7.532000000    -1.486000000    -3.210000000
H    -8.303000000    -2.179000000    -3.535000000
C    -7.354000000    -1.253000000    -1.818000000
H    -7.916000000    -1.915000000    -1.165000000
C    -6.459000000    -0.330000000    -1.301000000
O    -6.384000000    -0.086000000     0.073000000
C    -5.549000000    -0.665000000     1.007000000
C    -5.678000000    -0.116000000     2.260000000
H    -6.553000000     0.517000000     2.379000000
C    -4.889000000    -0.557000000     3.285000000
O    -5.074000000     0.028000000     4.487000000
C    -4.152000000    -0.073000000     5.563000000
C    -3.220000000     0.906000000     5.659000000
H    -3.330000000     1.729000000     4.958000000
C    -4.247000000    -1.024000000     6.553000000
H    -4.991000000    -1.806000000     6.425000000
C    -3.322000000    -1.093000000     7.558000000
H    -3.263000000    -1.832000000     8.353000000
C    -2.374000000    -0.089000000     7.624000000
H    -1.649000000    -0.171000000     8.429000000
C    -2.329000000     0.971000000     6.730000000
O    -1.308000000     1.874000000     6.811000000
C    -0.282000000     1.797000000     5.915000000
C     0.118000000     2.981000000     5.355000000
H    -0.357000000     3.862000000     5.779000000
C     1.065000000     3.071000000     4.368000000
O     1.383000000     4.317000000     3.884000000
C     2.624000000     4.645000000     3.421000000
C     3.751000000     4.548000000     4.264000000
H     3.712000000     4.280000000     5.317000000
C     5.009000000     5.006000000     3.842000000
H     5.711000000     5.119000000     4.664000000
C     5.256000000     5.355000000     2.528000000
H     6.265000000     5.585000000     2.195000000
C     4.122000000     5.355000000     1.695000000
C     2.808000000     5.071000000     2.110000000
H     1.960000000     5.196000000     1.443000000
C    -1.021000000     2.289000000     1.249000000
H    -1.589000000     2.567000000     2.133000000
C    -0.794000000     0.900000000     1.154000000
H    -0.965000000     0.187000000     1.957000000
C    -0.076000000     0.393000000     0.111000000
H     0.299000000    -0.613000000     0.049000000
C     0.318000000     1.268000000    -0.881000000
H     0.858000000     0.912000000    -1.755000000
C    -0.019000000     2.664000000    -0.920000000
H     0.327000000     3.392000000    -1.649000000
C    -0.676000000     3.150000000     0.243000000
C    -0.955000000     4.630000000     0.388000000
O    -0.369000000     5.486000000    -0.192000000
O    -1.782000000     5.074000000     1.198000000
O    -4.021000000     8.739000000     1.745000000
H    -4.554000000     9.511000000     1.555000000
H    -3.491000000     8.613000000     0.959000000
O    -1.885000000     9.716000000     3.967000000
H    -2.412000000     9.194000000     3.362000000
H    -2.454000000     9.852000000     4.725000000
O    -4.619000000     4.294000000     5.456000000
H    -4.701000000     4.192000000     4.507000000
H    -4.952000000     5.174000000     5.631000000
O    -2.637000000     5.352000000    -3.520000000
H    -3.017000000     4.899000000    -2.768000000
H    -2.936000000     4.850000000    -4.278000000
O    -4.459000000     3.958000000    -1.930000000
H    -4.178000000     3.476000000    -1.152000000
H    -5.340000000     3.630000000    -2.110000000
O    -2.679000000     8.525000000    -3.657000000
H    -2.366000000     7.624000000    -3.739000000
H    -3.092000000     8.557000000    -2.794000000
O    -5.648000000     6.273000000     2.097000000
H    -4.824000000     6.731000000     1.936000000
H    -6.322000000     6.940000000     1.969000000
O     0.663000000    10.406000000    -0.152000000
H     0.678000000    10.680000000     0.765000000
H     0.411000000     9.484000000    -0.123000000
O    -4.998000000     7.053000000    -1.776000000
H    -4.801000000     6.140000000    -1.987000000
H    -4.148000000     7.439000000    -1.566000000
O     1.029000000     8.484000000     4.038000000
H     0.387000000     7.792000000     3.880000000
H     1.260000000     8.390000000     4.962000000
O    -0.871000000     6.838000000     2.870000000
H    -1.424000000     6.413000000     2.215000000
H    -0.463000000     6.114000000     3.347000000
O     0.226000000     7.868000000     0.613000000
H     0.173000000     7.008000000     0.196000000
H     0.058000000     7.696000000     1.540000000
O    -6.439000000     4.435000000     0.209000000
H    -5.788000000     3.745000000     0.081000000
H    -6.059000000     5.002000000     0.880000000
O    -0.278000000     6.762000000    -2.890000000
H    -0.188000000     6.559000000    -1.959000000
H    -1.042000000     6.260000000    -3.172000000
O    -3.939000000     2.381000000     0.156000000
H    -3.017000000     2.170000000     0.009000000
H    -4.172000000     1.899000000     0.949000000
O     3.023000000     9.211000000     2.501000000
H     2.545000000     8.874000000     3.258000000
H     2.800000000    10.141000000     2.471000000
O    -2.602000000     7.344000000    -0.387000000
H    -2.389000000     6.520000000     0.049000000
H    -1.761000000     7.791000000    -0.480000000
O     1.690000000     8.925000000    -2.363000000
H     1.180000000     8.122000000    -2.466000000
H     1.273000000     9.382000000    -1.633000000
O    -4.194000000     3.871000000     2.536000000
H    -3.330000000     4.109000000     2.200000000
H    -4.701000000     4.681000000     2.486000000
