215
-1443.72911
C    -3.299000000     1.517000000    -2.252000000
H    -3.576000000     0.477000000    -2.399000000
C    -2.111000000     2.136000000    -2.844000000
C    -1.985000000     3.526000000    -2.742000000
H    -1.054000000     4.034000000    -2.984000000
C    -1.022000000     1.318000000    -3.497000000
O    -1.519000000     0.313000000    -4.456000000
H    -0.542000000     0.772000000    -2.672000000
O    -0.075000000     2.124000000    -4.206000000
C     1.263000000     1.740000000    -4.052000000
C     1.947000000     2.663000000    -3.278000000
H     1.481000000     3.604000000    -2.997000000
C     3.157000000     2.406000000    -2.697000000
O     3.671000000     3.326000000    -1.874000000
C     3.852000000     1.259000000    -3.046000000
C     5.198000000     0.918000000    -2.336000000
H     5.694000000     0.153000000    -2.937000000
C     4.887000000     0.231000000    -1.013000000
C     4.871000000    -1.191000000    -1.005000000
H     5.102000000    -1.818000000    -1.862000000
H     5.799000000     1.827000000    -2.270000000
C     3.237000000     0.351000000    -3.903000000
H     3.848000000    -0.485000000    -4.234000000
C     1.857000000     0.495000000    -4.326000000
C     1.228000000    -0.393000000    -5.392000000
H     2.079000000    -0.928000000    -5.817000000
H     0.745000000     0.222000000    -6.154000000
C     0.313000000    -1.324000000    -4.708000000
C     0.890000000    -2.533000000    -4.277000000
H     1.947000000    -2.775000000    -4.348000000
C    -1.008000000    -1.003000000    -4.313000000
C    -1.755000000    -1.946000000    -3.587000000
H    -2.753000000    -1.683000000    -3.246000000
C    -1.198000000    -3.190000000    -3.228000000
O    -2.030000000    -4.113000000    -2.543000000
C    -1.842000000    -4.125000000    -1.131000000
C    -3.165000000    -4.167000000    -0.384000000
C    -3.167000000    -4.827000000     0.851000000
H    -2.348000000    -5.409000000     1.266000000
C    -4.306000000    -3.511000000    -0.797000000
H    -4.207000000    -2.945000000    -1.719000000
O    -0.954000000    -5.171000000    -0.794000000
H    -1.287000000    -3.248000000    -0.767000000
C     0.167000000    -3.509000000    -3.493000000
C     0.774000000    -4.821000000    -3.069000000
H     1.626000000    -5.172000000    -3.654000000
H    -0.063000000    -5.515000000    -3.177000000
C     1.277000000    -4.685000000    -1.668000000
C     2.534000000    -4.195000000    -1.376000000
H     3.269000000    -3.939000000    -2.134000000
C     0.312000000    -4.800000000    -0.576000000
C     0.663000000    -4.526000000     0.690000000
H     0.018000000    -4.684000000     1.551000000
C     1.967000000    -4.089000000     0.952000000
O     2.272000000    -3.690000000     2.234000000
C     2.345000000    -2.226000000     2.419000000
C     1.609000000    -1.843000000     3.700000000
C     0.363000000    -2.465000000     4.007000000
H    -0.010000000    -3.319000000     3.448000000
C     1.950000000    -0.624000000     4.378000000
H     2.866000000    -0.107000000     4.107000000
O     3.740000000    -1.798000000     2.477000000
H     1.832000000    -1.684000000     1.611000000
C     2.925000000    -3.918000000    -0.076000000
C     4.328000000    -3.361000000     0.211000000
H     5.029000000    -3.810000000    -0.496000000
H     4.716000000    -3.573000000     1.209000000
C     4.458000000    -1.862000000     0.181000000
C     4.206000000    -1.157000000     1.356000000
C     4.237000000     0.297000000     1.348000000
H     3.975000000     0.805000000     2.273000000
C     4.589000000     0.981000000     0.156000000
O     4.521000000     2.347000000     0.187000000
C     3.452000000     3.028000000    -0.487000000
H     2.547000000     2.404000000    -0.545000000
C     3.004000000     4.176000000     0.313000000
C     2.298000000     5.259000000    -0.228000000
H     2.255000000     5.158000000    -1.310000000
C     3.048000000     4.162000000     1.737000000
H     3.556000000     3.283000000     2.126000000
C     2.504000000     5.140000000     2.576000000
O     2.636000000     5.120000000     3.938000000
C     1.882000000     6.161000000     1.933000000
H     1.277000000     6.937000000     2.396000000
C     1.747000000     6.283000000     0.527000000
O     1.251000000     7.389000000    -0.092000000
C     0.291000000     7.309000000    -1.150000000
C    -0.837000000     6.527000000    -1.095000000
H    -0.941000000     5.890000000    -0.221000000
C     0.350000000     8.215000000    -2.206000000
H     1.186000000     8.909000000    -2.179000000
C    -0.544000000     8.188000000    -3.286000000
H    -0.453000000     8.920000000    -4.084000000
C    -1.549000000     7.276000000    -3.245000000
H    -2.336000000     7.308000000    -3.994000000
C    -1.769000000     6.454000000    -2.152000000
O    -2.898000000     5.666000000    -2.110000000
C    -2.970000000     4.296000000    -2.092000000
C    -4.183000000     3.651000000    -1.790000000
H    -4.961000000     4.287000000    -1.376000000
C    -4.316000000     2.281000000    -1.778000000
O    -5.456000000     1.674000000    -1.280000000
C    -5.864000000     0.459000000    -1.795000000
C    -6.250000000    -0.569000000    -0.910000000
H    -6.166000000    -0.453000000     0.168000000
C    -5.881000000     0.245000000    -3.194000000
H    -5.435000000     1.019000000    -3.814000000
C    -6.375000000    -0.969000000    -3.667000000
H    -6.600000000    -1.220000000    -4.700000000
C    -6.665000000    -1.989000000    -2.744000000
H    -7.135000000    -2.838000000    -3.234000000
C    -6.526000000    -1.854000000    -1.387000000
O    -6.621000000    -2.914000000    -0.529000000
C    -5.428000000    -3.444000000    -0.026000000
C    -5.484000000    -4.183000000     1.141000000
H    -6.415000000    -4.260000000     1.698000000
C    -4.355000000    -4.870000000     1.577000000
O    -4.356000000    -5.618000000     2.762000000
C    -3.713000000    -5.210000000     3.944000000
C    -3.215000000    -3.913000000     4.070000000
H    -3.386000000    -3.201000000     3.267000000
C    -3.545000000    -6.126000000     4.930000000
H    -4.026000000    -7.092000000     4.804000000
C    -2.786000000    -5.801000000     6.028000000
H    -2.507000000    -6.605000000     6.704000000
C    -2.131000000    -4.600000000     6.148000000
H    -1.474000000    -4.372000000     6.983000000
C    -2.412000000    -3.615000000     5.177000000
O    -1.839000000    -2.351000000     5.279000000
C    -0.477000000    -1.964000000     4.998000000
C    -0.043000000    -0.814000000     5.716000000
H    -0.698000000    -0.440000000     6.499000000
C     1.151000000    -0.186000000     5.443000000
O     1.411000000     0.984000000     6.050000000
C     2.358000000     1.872000000     5.627000000
C     3.598000000     1.891000000     6.333000000
H     3.758000000     1.064000000     7.021000000
C     4.493000000     2.957000000     6.131000000
H     5.530000000     2.933000000     6.457000000
C     4.160000000     4.046000000     5.342000000
H     4.856000000     4.832000000     5.059000000
C     2.985000000     4.009000000     4.646000000
C     2.048000000     3.009000000     4.849000000
H     1.025000000     3.116000000     4.497000000
C    -0.463000000     2.296000000     1.268000000
H    -0.472000000     3.382000000     1.243000000
C     0.180000000     1.517000000     0.295000000
H     0.617000000     1.914000000    -0.618000000
C     0.298000000     0.155000000     0.422000000
H     0.797000000    -0.492000000    -0.337000000
C    -0.368000000    -0.476000000     1.362000000
H    -0.334000000    -1.560000000     1.293000000
C    -1.206000000     0.214000000     2.232000000
H    -1.878000000    -0.313000000     2.904000000
C    -1.224000000     1.591000000     2.214000000
C    -2.053000000     2.360000000     3.184000000
O    -2.621000000     1.821000000     4.129000000
O    -2.172000000     3.583000000     3.068000000
O     1.212000000     2.385000000     8.755000000
H     0.541000000     1.710000000     8.859000000
H     1.269000000     2.523000000     7.809000000
O    -6.349000000     1.282000000     2.819000000
H    -7.030000000     1.432000000     3.475000000
H    -5.669000000     0.798000000     3.287000000
O    -2.849000000     8.072000000     3.799000000
H    -2.539000000     8.395000000     2.953000000
H    -3.716000000     8.463000000     3.902000000
O    -5.056000000     6.023000000     3.962000000
H    -4.394000000     5.773000000     3.318000000
H    -4.752000000     6.863000000     4.305000000
O    -6.357000000     3.511000000     1.163000000
H    -6.277000000     2.862000000     1.862000000
H    -6.482000000     2.993000000     0.368000000
O    -1.191000000     5.597000000     4.520000000
H    -1.790000000     6.314000000     4.312000000
H    -1.299000000     4.977000000     3.799000000
O    -2.765000000     0.834000000     6.543000000
H    -2.186000000     1.438000000     7.010000000
H    -2.669000000     1.075000000     5.621000000
O    -2.679000000     3.776000000     8.118000000
H    -1.746000000     3.778000000     7.903000000
H    -3.108000000     4.100000000     7.326000000
O    -4.330000000    -0.425000000     4.452000000
H    -3.854000000    -0.941000000     5.103000000
H    -3.714000000     0.259000000     4.191000000
O    -3.967000000     3.925000000     5.683000000
H    -4.424000000     4.650000000     5.257000000
H    -3.519000000     3.470000000     4.969000000
O     0.783000000     7.450000000     4.726000000
H     1.216000000     7.231000000     5.551000000
H     0.150000000     6.744000000     4.593000000
O    -0.331000000     4.488000000     6.761000000
H    -0.679000000     4.913000000     5.977000000
H     0.609000000     4.664000000     6.732000000
O    -0.966000000     5.954000000     8.915000000
H    -0.229000000     6.559000000     9.001000000
H    -0.748000000     5.419000000     8.152000000
O    -3.870000000     4.942000000     1.290000000
H    -4.683000000     4.440000000     1.232000000
H    -3.308000000     4.420000000     1.864000000
O    -7.378000000     5.784000000     2.600000000
H    -7.286000000     4.888000000     2.276000000
H    -6.478000000     6.090000000     2.715000000
O    -3.721000000    -0.932000000     8.095000000
H    -3.401000000    -0.231000000     7.527000000
H    -3.545000000    -0.621000000     8.983000000
O    -6.382000000    -2.011000000     5.198000000
H    -5.938000000    -2.471000000     5.910000000
H    -5.675000000    -1.738000000     4.612000000
O    -4.298000000     7.788000000    -0.229000000
H    -4.328000000     6.956000000     0.244000000
H    -4.477000000     7.554000000    -1.139000000
O    -5.582000000     0.914000000     6.625000000
H    -4.735000000     1.355000000     6.556000000
H    -5.448000000     0.070000000     6.193000000
