215
-1439.56760
C    -3.706000000     1.421000000    -3.538000000
H    -4.007000000     0.439000000    -3.893000000
C    -2.396000000     1.923000000    -3.558000000
C    -2.115000000     3.216000000    -3.174000000
H    -1.066000000     3.501000000    -3.163000000
C    -1.283000000     0.904000000    -3.737000000
O    -1.690000000    -0.100000000    -4.638000000
H    -0.964000000     0.534000000    -2.751000000
O    -0.171000000     1.614000000    -4.288000000
C     1.111000000     1.301000000    -4.022000000
C     1.883000000     2.242000000    -3.286000000
H     1.323000000     3.127000000    -2.996000000
C     3.141000000     1.980000000    -2.888000000
O     3.817000000     2.841000000    -2.026000000
C     3.718000000     0.772000000    -3.254000000
C     5.067000000     0.362000000    -2.588000000
H     5.522000000    -0.324000000    -3.305000000
C     4.880000000    -0.214000000    -1.131000000
C     4.725000000    -1.592000000    -0.989000000
H     4.841000000    -2.201000000    -1.882000000
H     5.725000000     1.232000000    -2.643000000
C     2.965000000    -0.151000000    -3.978000000
H     3.371000000    -1.119000000    -4.259000000
C     1.645000000     0.049000000    -4.348000000
C     0.954000000    -1.015000000    -5.180000000
H     1.662000000    -1.758000000    -5.553000000
H     0.513000000    -0.478000000    -6.023000000
C    -0.044000000    -1.895000000    -4.408000000
C     0.372000000    -3.133000000    -3.882000000
H     1.369000000    -3.474000000    -4.147000000
C    -1.343000000    -1.380000000    -4.212000000
C    -2.166000000    -2.119000000    -3.392000000
H    -3.105000000    -1.676000000    -3.070000000
C    -1.777000000    -3.363000000    -2.883000000
O    -2.601000000    -3.912000000    -1.885000000
C    -2.230000000    -3.609000000    -0.458000000
C    -3.432000000    -3.241000000     0.333000000
C    -3.360000000    -3.354000000     1.732000000
H    -2.598000000    -3.969000000     2.204000000
C    -4.547000000    -2.692000000    -0.215000000
H    -4.545000000    -2.366000000    -1.252000000
O    -1.478000000    -4.756000000     0.018000000
H    -1.640000000    -2.681000000    -0.436000000
C    -0.494000000    -3.888000000    -3.133000000
C     0.124000000    -5.132000000    -2.431000000
H     0.841000000    -5.624000000    -3.091000000
H    -0.723000000    -5.787000000    -2.216000000
C     0.697000000    -4.675000000    -1.107000000
C     2.088000000    -4.389000000    -0.991000000
H     2.648000000    -4.671000000    -1.879000000
C    -0.098000000    -4.579000000     0.055000000
C     0.428000000    -4.226000000     1.245000000
H    -0.233000000    -4.134000000     2.103000000
C     1.824000000    -4.001000000     1.315000000
O     2.338000000    -3.564000000     2.591000000
C     2.537000000    -2.165000000     2.706000000
C     2.024000000    -1.599000000     4.047000000
C     0.762000000    -2.003000000     4.569000000
H     0.263000000    -2.838000000     4.085000000
C     2.750000000    -0.649000000     4.730000000
H     3.712000000    -0.318000000     4.345000000
O     3.913000000    -1.908000000     2.547000000
H     1.974000000    -1.647000000     1.916000000
C     2.633000000    -4.025000000     0.141000000
C     4.098000000    -3.658000000     0.253000000
H     4.612000000    -4.185000000    -0.553000000
H     4.631000000    -4.100000000     1.097000000
C     4.418000000    -2.172000000     0.187000000
C     4.200000000    -1.355000000     1.291000000
C     4.389000000     0.019000000     1.180000000
H     4.173000000     0.744000000     1.961000000
C     4.722000000     0.610000000    -0.030000000
O     4.809000000     1.959000000    -0.038000000
C     3.640000000     2.652000000    -0.591000000
H     2.798000000     1.952000000    -0.482000000
C     3.255000000     3.934000000     0.159000000
C     2.513000000     4.916000000    -0.531000000
H     2.598000000     4.967000000    -1.613000000
C     3.281000000     4.033000000     1.546000000
H     3.719000000     3.190000000     2.073000000
C     2.613000000     5.001000000     2.253000000
O     2.545000000     5.028000000     3.597000000
C     1.994000000     6.039000000     1.478000000
H     1.483000000     6.833000000     2.017000000
C     1.904000000     5.964000000     0.142000000
O     1.242000000     7.012000000    -0.510000000
C     0.537000000     6.677000000    -1.637000000
C    -0.670000000     5.939000000    -1.495000000
H    -1.038000000     5.698000000    -0.501000000
C     0.866000000     7.289000000    -2.826000000
H     1.737000000     7.937000000    -2.868000000
C    -0.001000000     7.141000000    -3.859000000
H     0.274000000     7.737000000    -4.726000000
C    -1.259000000     6.478000000    -3.783000000
H    -2.015000000     6.512000000    -4.562000000
C    -1.575000000     5.909000000    -2.601000000
O    -2.827000000     5.367000000    -2.427000000
C    -3.129000000     4.099000000    -2.866000000
C    -4.440000000     3.624000000    -2.820000000
H    -5.300000000     4.205000000    -2.496000000
C    -4.691000000     2.283000000    -3.112000000
O    -6.025000000     1.916000000    -3.014000000
C    -6.513000000     0.607000000    -2.770000000
C    -6.430000000     0.139000000    -1.501000000
H    -5.867000000     0.668000000    -0.735000000
C    -7.231000000    -0.095000000    -3.782000000
H    -7.345000000     0.258000000    -4.804000000
C    -7.815000000    -1.313000000    -3.396000000
H    -8.550000000    -1.764000000    -4.059000000
C    -7.665000000    -1.867000000    -2.189000000
H    -8.192000000    -2.794000000    -1.979000000
C    -6.951000000    -1.175000000    -1.203000000
O    -6.754000000    -1.604000000     0.077000000
C    -5.609000000    -2.293000000     0.546000000
C    -5.609000000    -2.483000000     1.906000000
H    -6.431000000    -2.170000000     2.543000000
C    -4.438000000    -2.944000000     2.486000000
O    -4.526000000    -3.254000000     3.854000000
C    -3.566000000    -3.684000000     4.723000000
C    -2.739000000    -2.706000000     5.278000000
H    -3.028000000    -1.659000000     5.236000000
C    -3.192000000    -5.036000000     4.875000000
H    -3.789000000    -5.678000000     4.232000000
C    -2.023000000    -5.396000000     5.566000000
H    -1.635000000    -6.412000000     5.576000000
C    -1.222000000    -4.413000000     6.081000000
H    -0.346000000    -4.788000000     6.602000000
C    -1.585000000    -3.065000000     5.901000000
O    -0.825000000    -2.107000000     6.366000000
C     0.370000000    -1.589000000     5.811000000
C     1.070000000    -0.574000000     6.441000000
H     0.666000000    -0.278000000     7.406000000
C     2.217000000    -0.023000000     5.884000000
O     2.759000000     1.103000000     6.469000000
C     3.382000000     2.088000000     5.701000000
C     4.814000000     2.014000000     5.572000000
H     5.428000000     1.242000000     6.030000000
C     5.412000000     3.148000000     5.047000000
H     6.498000000     3.172000000     5.082000000
C     4.576000000     4.195000000     4.541000000
H     5.060000000     5.070000000     4.114000000
C     3.174000000     4.090000000     4.418000000
C     2.540000000     3.098000000     5.112000000
H     1.458000000     3.026000000     5.188000000
C    -2.060000000     1.342000000     0.159000000
H    -2.504000000     2.101000000    -0.480000000
C    -0.818000000     0.952000000    -0.196000000
H    -0.241000000     1.468000000    -0.959000000
C    -0.183000000    -0.091000000     0.524000000
H     0.827000000    -0.478000000     0.254000000
C    -0.825000000    -0.688000000     1.583000000
H    -0.341000000    -1.516000000     2.094000000
C    -2.112000000    -0.270000000     1.948000000
H    -2.512000000    -0.597000000     2.904000000
C    -2.776000000     0.699000000     1.108000000
C    -4.075000000     1.180000000     1.570000000
O    -4.726000000     0.678000000     2.447000000
O    -4.345000000     2.354000000     1.353000000
O    -7.106000000     6.446000000     1.347000000
H    -7.448000000     6.156000000     2.193000000
H    -6.825000000     5.640000000     0.913000000
O    -7.058000000     4.326000000     4.653000000
H    -6.114000000     4.476000000     4.600000000
H    -7.286000000     3.939000000     3.807000000
O    -5.045000000     7.257000000    -1.266000000
H    -4.549000000     8.028000000    -0.990000000
H    -4.559000000     6.518000000    -0.900000000
O    -8.088000000     1.278000000     6.330000000
H    -7.151000000     1.339000000     6.144000000
H    -8.341000000     0.412000000     6.008000000
O    -9.409000000    -1.295000000     1.648000000
H    -8.582000000    -0.993000000     1.273000000
H    -9.835000000    -0.498000000     1.963000000
O    -6.407000000    -3.276000000     6.215000000
H    -5.930000000    -3.266000000     5.385000000
H    -5.949000000    -2.637000000     6.762000000
O    -4.351000000     6.239000000     3.017000000
H    -3.806000000     7.024000000     3.057000000
H    -4.481000000     6.086000000     2.081000000
O    -8.954000000     4.454000000    -1.457000000
H    -8.249000000     4.149000000    -0.886000000
H    -9.548000000     3.706000000    -1.524000000
O     0.108000000     1.790000000     3.182000000
H     0.525000000     2.597000000     2.879000000
H     0.397000000     1.123000000     2.559000000
O    -2.414000000     1.409000000     4.789000000
H    -1.765000000     1.619000000     4.118000000
H    -3.200000000     1.884000000     4.520000000
O    -5.626000000     1.032000000     4.926000000
H    -5.193000000     0.806000000     4.103000000
H    -4.997000000     1.590000000     5.382000000
O    -3.949000000     3.461000000     3.657000000
H    -4.313000000     2.907000000     2.968000000
H    -3.956000000     4.343000000     3.285000000
O    -1.308000000     4.370000000     5.105000000
H    -1.838000000     3.761000000     4.590000000
H    -1.817000000     5.180000000     5.117000000
O    -6.674000000     3.875000000     0.706000000
H    -7.372000000     3.713000000     1.340000000
H    -6.037000000     3.179000000     0.869000000
O    -5.089000000    -1.034000000     7.132000000
H    -4.554000000    -0.334000000     7.506000000
H    -5.534000000    -0.624000000     6.390000000
O    -2.288000000     0.384000000     7.356000000
H    -2.358000000     0.778000000     6.487000000
H    -1.488000000     0.758000000     7.726000000
O    -7.318000000     0.638000000     2.433000000
H    -7.631000000     0.038000000     3.110000000
H    -6.364000000     0.579000000     2.484000000
O    -4.185000000     5.121000000     0.367000000
H    -3.692000000     4.311000000     0.501000000
H    -5.068000000     4.829000000     0.138000000
O    -8.565000000     3.170000000     2.425000000
H    -9.396000000     3.201000000     2.899000000
H    -8.456000000     2.247000000     2.194000000
