215
-1447.16581
C    -4.279000000     1.739000000    -2.612000000
H    -4.629000000     0.742000000    -2.868000000
C    -2.990000000     2.142000000    -2.913000000
C    -2.650000000     3.493000000    -2.617000000
H    -1.703000000     3.819000000    -3.038000000
C    -1.891000000     1.241000000    -3.438000000
O    -2.525000000     0.109000000    -4.125000000
H    -1.395000000     0.762000000    -2.581000000
O    -0.973000000     1.943000000    -4.429000000
C     0.396000000     1.696000000    -4.386000000
C     1.292000000     2.627000000    -3.792000000
H     0.978000000     3.606000000    -3.439000000
C     2.542000000     2.207000000    -3.360000000
O     3.247000000     3.037000000    -2.562000000
C     3.047000000     0.931000000    -3.668000000
C     4.538000000     0.545000000    -3.355000000
H     4.958000000    -0.163000000    -4.073000000
C     4.521000000    -0.122000000    -1.912000000
C     4.563000000    -1.507000000    -1.780000000
H     4.401000000    -2.069000000    -2.697000000
H     5.167000000     1.433000000    -3.448000000
C     2.163000000     0.070000000    -4.397000000
H     2.563000000    -0.905000000    -4.664000000
C     0.837000000     0.399000000    -4.730000000
C    -0.011000000    -0.645000000    -5.460000000
H     0.610000000    -1.276000000    -6.099000000
H    -0.701000000    -0.185000000    -6.169000000
C    -0.723000000    -1.488000000    -4.434000000
C    -0.189000000    -2.760000000    -4.151000000
H     0.786000000    -3.023000000    -4.554000000
C    -1.926000000    -1.131000000    -3.904000000
C    -2.645000000    -2.035000000    -3.088000000
H    -3.600000000    -1.783000000    -2.634000000
C    -2.013000000    -3.237000000    -2.733000000
O    -2.541000000    -4.019000000    -1.699000000
C    -2.129000000    -3.827000000    -0.346000000
C    -3.158000000    -3.568000000     0.611000000
C    -2.986000000    -3.899000000     1.978000000
H    -2.069000000    -4.333000000     2.368000000
C    -4.379000000    -2.957000000     0.216000000
H    -4.449000000    -2.617000000    -0.814000000
O    -1.347000000    -4.972000000     0.074000000
H    -1.411000000    -2.997000000    -0.413000000
C    -0.818000000    -3.628000000    -3.302000000
C    -0.135000000    -4.876000000    -2.729000000
H     0.410000000    -5.412000000    -3.509000000
H    -0.937000000    -5.583000000    -2.506000000
C     0.691000000    -4.703000000    -1.446000000
C     2.028000000    -4.301000000    -1.545000000
H     2.403000000    -4.067000000    -2.538000000
C     0.060000000    -4.844000000    -0.176000000
C     0.767000000    -4.499000000     0.978000000
H     0.268000000    -4.428000000     1.941000000
C     2.087000000    -4.053000000     0.960000000
O     2.683000000    -3.579000000     2.082000000
C     2.944000000    -2.178000000     2.226000000
C     2.500000000    -1.683000000     3.650000000
C     1.788000000    -2.494000000     4.527000000
H     1.529000000    -3.500000000     4.205000000
C     2.710000000    -0.399000000     3.963000000
H     3.242000000     0.286000000     3.308000000
O     4.347000000    -1.785000000     1.873000000
H     2.330000000    -1.679000000     1.462000000
C     2.717000000    -4.011000000    -0.305000000
C     4.211000000    -3.655000000    -0.450000000
H     4.446000000    -4.054000000    -1.440000000
H     4.858000000    -4.050000000     0.336000000
C     4.494000000    -2.147000000    -0.522000000
C     4.567000000    -1.324000000     0.637000000
C     4.735000000     0.088000000     0.482000000
H     4.882000000     0.720000000     1.353000000
C     4.731000000     0.673000000    -0.794000000
O     4.594000000     2.046000000    -0.806000000
C     3.267000000     2.636000000    -1.156000000
H     2.411000000     1.973000000    -0.958000000
C     3.179000000     3.929000000    -0.313000000
C     2.223000000     4.884000000    -0.644000000
H     1.598000000     4.793000000    -1.528000000
C     3.775000000     4.030000000     0.939000000
H     4.617000000     3.387000000     1.184000000
C     3.435000000     5.037000000     1.853000000
O     4.099000000     5.265000000     3.006000000
C     2.557000000     5.966000000     1.518000000
H     2.263000000     6.834000000     2.102000000
C     1.906000000     5.900000000     0.253000000
O     0.938000000     6.804000000    -0.028000000
C     0.070000000     6.768000000    -1.046000000
C    -1.216000000     6.256000000    -0.837000000
H    -1.524000000     5.983000000     0.169000000
C     0.465000000     7.194000000    -2.294000000
H     1.516000000     7.427000000    -2.445000000
C    -0.471000000     7.097000000    -3.357000000
H    -0.176000000     7.443000000    -4.344000000
C    -1.751000000     6.638000000    -3.141000000
H    -2.391000000     6.543000000    -4.014000000
C    -2.124000000     6.205000000    -1.869000000
O    -3.438000000     5.703000000    -1.701000000
C    -3.667000000     4.332000000    -2.022000000
C    -4.880000000     3.830000000    -1.699000000
H    -5.642000000     4.504000000    -1.315000000
C    -5.186000000     2.487000000    -1.917000000
O    -6.387000000     1.935000000    -1.639000000
C    -6.751000000     0.625000000    -1.502000000
C    -6.291000000    -0.166000000    -0.453000000
H    -5.650000000     0.162000000     0.361000000
C    -7.758000000     0.099000000    -2.351000000
H    -8.193000000     0.665000000    -3.171000000
C    -8.118000000    -1.213000000    -2.278000000
H    -8.886000000    -1.571000000    -2.959000000
C    -7.651000000    -1.963000000    -1.289000000
H    -7.934000000    -2.999000000    -1.121000000
C    -6.790000000    -1.435000000    -0.318000000
O    -6.557000000    -2.116000000     0.825000000
C    -5.332000000    -2.637000000     1.200000000
C    -5.126000000    -2.992000000     2.518000000
H    -5.861000000    -2.858000000     3.307000000
C    -3.940000000    -3.591000000     2.867000000
O    -3.859000000    -3.799000000     4.217000000
C    -2.694000000    -4.098000000     4.848000000
C    -1.830000000    -3.123000000     5.343000000
H    -2.165000000    -2.108000000     5.147000000
C    -2.361000000    -5.420000000     5.042000000
H    -3.114000000    -6.129000000     4.707000000
C    -1.181000000    -5.802000000     5.629000000
H    -0.832000000    -6.804000000     5.865000000
C    -0.313000000    -4.813000000     6.063000000
H     0.545000000    -5.007000000     6.701000000
C    -0.656000000    -3.461000000     5.938000000
O     0.210000000    -2.474000000     6.436000000
C     1.200000000    -1.908000000     5.664000000
C     1.452000000    -0.565000000     5.954000000
H     0.968000000    -0.036000000     6.772000000
C     2.278000000     0.184000000     5.178000000
O     2.571000000     1.510000000     5.475000000
C     3.616000000     2.246000000     5.042000000
C     4.942000000     1.965000000     5.397000000
H     5.089000000     1.086000000     6.019000000
C     6.001000000     2.776000000     5.044000000
H     7.009000000     2.493000000     5.334000000
C     5.671000000     3.910000000     4.250000000
H     6.430000000     4.551000000     3.808000000
C     4.367000000     4.181000000     3.827000000
C     3.333000000     3.327000000     4.231000000
H     2.338000000     3.577000000     3.872000000
C    -1.098000000     1.403000000     0.151000000
H    -1.440000000     2.286000000    -0.382000000
C     0.013000000     0.806000000    -0.422000000
H     0.528000000     1.250000000    -1.269000000
C     0.543000000    -0.359000000     0.174000000
H     1.396000000    -0.870000000    -0.289000000
C    -0.099000000    -0.845000000     1.294000000
H     0.414000000    -1.692000000     1.743000000
C    -1.230000000    -0.278000000     1.881000000
H    -1.662000000    -0.707000000     2.782000000
C    -1.688000000     0.885000000     1.296000000
C    -2.944000000     1.554000000     1.783000000
O    -3.774000000     0.946000000     2.443000000
O    -3.172000000     2.662000000     1.485000000
O    -7.545000000     4.170000000     1.781000000
H    -7.039000000     4.962000000     1.958000000
H    -7.051000000     3.469000000     2.205000000
O    -5.475000000     1.813000000     6.258000000
H    -4.693000000     1.377000000     5.923000000
H    -5.653000000     2.506000000     5.622000000
O    -6.192000000     6.473000000     2.057000000
H    -5.442000000     6.655000000     1.491000000
H    -5.956000000     6.863000000     2.899000000
O    -8.338000000     1.009000000     6.262000000
H    -7.384000000     0.926000000     6.237000000
H    -8.659000000     0.205000000     5.854000000
O    -5.459000000     5.995000000     5.832000000
H    -4.572000000     6.043000000     5.474000000
H    -5.902000000     6.766000000     5.479000000
O    -3.418000000     7.172000000     4.316000000
H    -3.578000000     8.105000000     4.175000000
H    -3.014000000     6.872000000     3.502000000
O    -9.049000000     3.061000000    -0.537000000
H    -8.410000000     3.517000000     0.012000000
H    -8.520000000     2.607000000    -1.193000000
O     0.155000000     3.445000000     2.518000000
H    -0.054000000     2.760000000     1.883000000
H    -0.250000000     3.146000000     3.333000000
O    -0.382000000     3.030000000     5.102000000
H    -1.311000000     3.200000000     5.260000000
H     0.072000000     3.535000000     5.776000000
O    -2.968000000     0.479000000     4.871000000
H    -3.297000000     0.409000000     3.975000000
H    -2.118000000     0.909000000     4.782000000
O    -3.050000000     3.842000000     4.755000000
H    -4.008000000     3.846000000     4.769000000
H    -2.821000000     4.313000000     3.954000000
O    -5.116000000    -0.054000000    -5.066000000
H    -5.665000000     0.727000000    -5.143000000
H    -4.614000000     0.086000000    -4.263000000
O     0.531000000     5.906000000     3.781000000
H     0.274000000     5.084000000     3.365000000
H     0.130000000     6.585000000     3.239000000
O    -5.668000000     2.836000000     3.438000000
H    -6.035000000     1.953000000     3.463000000
H    -4.826000000     2.733000000     2.994000000
O    -4.631000000    -1.257000000     6.306000000
H    -4.567000000    -1.040000000     7.236000000
H    -4.034000000    -0.645000000     5.875000000
O    -5.987000000    -0.029000000     3.400000000
H    -5.683000000    -0.350000000     4.249000000
H    -5.185000000     0.191000000     2.926000000
O    -2.736000000     5.117000000     2.228000000
H    -2.009000000     5.269000000     1.624000000
H    -3.080000000     4.259000000     1.978000000
O    -8.362000000     0.587000000     2.332000000
H    -8.728000000    -0.029000000     1.696000000
H    -7.564000000     0.162000000     2.645000000
O    -9.737000000     3.129000000     3.268000000
H    -9.629000000     2.194000000     3.442000000
H    -9.063000000     3.331000000     2.619000000
