215
-1444.90756
C    -3.876000000     2.057000000    -2.385000000
H    -4.082000000     0.994000000    -2.295000000
C    -2.688000000     2.460000000    -2.940000000
C    -2.320000000     3.812000000    -2.886000000
H    -1.368000000     4.116000000    -3.313000000
C    -1.766000000     1.441000000    -3.579000000
O    -2.565000000     0.378000000    -4.174000000
H    -1.233000000     0.998000000    -2.725000000
O    -0.858000000     1.903000000    -4.622000000
C     0.442000000     1.421000000    -4.461000000
C     1.335000000     2.101000000    -3.627000000
H     1.035000000     2.999000000    -3.094000000
C     2.572000000     1.577000000    -3.413000000
O     3.433000000     2.425000000    -2.681000000
C     3.012000000     0.356000000    -3.893000000
C     4.317000000    -0.249000000    -3.518000000
H     4.434000000    -1.004000000    -4.299000000
C     4.263000000    -0.847000000    -2.117000000
C     3.964000000    -2.193000000    -1.975000000
H     3.810000000    -2.678000000    -2.936000000
H     5.043000000     0.566000000    -3.508000000
C     2.023000000    -0.395000000    -4.578000000
H     2.163000000    -1.448000000    -4.808000000
C     0.768000000     0.108000000    -4.876000000
C    -0.217000000    -0.810000000    -5.588000000
H     0.320000000    -1.522000000    -6.219000000
H    -0.898000000    -0.247000000    -6.229000000
C    -1.111000000    -1.612000000    -4.584000000
C    -0.729000000    -2.931000000    -4.235000000
H     0.172000000    -3.408000000    -4.614000000
C    -2.248000000    -0.981000000    -3.995000000
C    -3.070000000    -1.713000000    -3.148000000
H    -3.995000000    -1.386000000    -2.679000000
C    -2.726000000    -2.987000000    -2.758000000
O    -3.342000000    -3.497000000    -1.580000000
C    -2.743000000    -3.295000000    -0.279000000
C    -3.815000000    -2.931000000     0.811000000
C    -3.527000000    -3.189000000     2.152000000
H    -2.712000000    -3.818000000     2.500000000
C    -4.916000000    -2.112000000     0.598000000
H    -5.176000000    -1.813000000    -0.414000000
O    -1.999000000    -4.494000000     0.125000000
H    -1.914000000    -2.597000000    -0.468000000
C    -1.501000000    -3.562000000    -3.258000000
C    -0.956000000    -4.862000000    -2.668000000
H    -0.373000000    -5.416000000    -3.406000000
H    -1.702000000    -5.564000000    -2.290000000
C    -0.169000000    -4.511000000    -1.433000000
C     1.212000000    -4.451000000    -1.584000000
H     1.645000000    -4.516000000    -2.579000000
C    -0.653000000    -4.552000000    -0.125000000
C     0.118000000    -4.393000000     0.988000000
H    -0.286000000    -4.472000000     1.994000000
C     1.476000000    -4.188000000     0.816000000
O     2.167000000    -3.915000000     2.040000000
C     2.656000000    -2.519000000     2.076000000
C     2.495000000    -1.827000000     3.410000000
C     1.323000000    -2.086000000     4.147000000
H     0.579000000    -2.816000000     3.838000000
C     3.367000000    -0.832000000     3.842000000
H     4.180000000    -0.524000000     3.189000000
O     4.005000000    -2.557000000     1.609000000
H     2.037000000    -1.968000000     1.354000000
C     2.050000000    -4.244000000    -0.436000000
C     3.544000000    -4.256000000    -0.584000000
H     3.759000000    -4.885000000    -1.451000000
H     4.131000000    -4.634000000     0.255000000
C     4.032000000    -2.811000000    -0.754000000
C     4.197000000    -2.011000000     0.381000000
C     4.558000000    -0.691000000     0.295000000
H     4.614000000    -0.096000000     1.203000000
C     4.501000000    -0.086000000    -0.942000000
O     4.638000000     1.335000000    -0.948000000
C     3.495000000     2.116000000    -1.215000000
H     2.680000000     1.414000000    -0.981000000
C     3.337000000     3.336000000    -0.283000000
C     2.179000000     4.137000000    -0.386000000
H     1.402000000     3.969000000    -1.127000000
C     4.205000000     3.541000000     0.798000000
H     4.977000000     2.825000000     1.068000000
C     3.958000000     4.535000000     1.735000000
O     4.736000000     4.594000000     2.851000000
C     2.907000000     5.366000000     1.480000000
H     2.684000000     6.197000000     2.144000000
C     1.983000000     5.194000000     0.485000000
O     0.790000000     5.927000000     0.521000000
C     0.218000000     6.392000000    -0.598000000
C    -1.103000000     5.952000000    -0.911000000
H    -1.651000000     5.360000000    -0.183000000
C     0.918000000     7.201000000    -1.556000000
H     1.940000000     7.504000000    -1.345000000
C     0.408000000     7.478000000    -2.794000000
H     0.906000000     8.191000000    -3.446000000
C    -0.956000000     7.145000000    -3.020000000
H    -1.549000000     7.514000000    -3.852000000
C    -1.662000000     6.446000000    -2.083000000
O    -2.867000000     6.057000000    -2.424000000
C    -3.237000000     4.776000000    -2.461000000
C    -4.525000000     4.418000000    -2.012000000
H    -5.329000000     5.112000000    -1.783000000
C    -4.810000000     3.077000000    -1.922000000
O    -6.093000000     2.741000000    -1.547000000
C    -6.583000000     1.500000000    -1.385000000
C    -6.539000000     1.059000000    -0.083000000
H    -6.147000000     1.688000000     0.712000000
C    -7.049000000     0.807000000    -2.456000000
H    -6.880000000     1.094000000    -3.490000000
C    -7.558000000    -0.429000000    -2.214000000
H    -7.954000000    -1.129000000    -2.945000000
C    -7.517000000    -0.915000000    -0.886000000
H    -7.893000000    -1.917000000    -0.695000000
C    -6.985000000    -0.205000000     0.163000000
O    -6.793000000    -0.799000000     1.349000000
C    -5.788000000    -1.699000000     1.598000000
C    -5.584000000    -2.205000000     2.895000000
H    -6.332000000    -1.925000000     3.632000000
C    -4.449000000    -2.898000000     3.221000000
O    -4.218000000    -3.350000000     4.431000000
C    -2.979000000    -3.686000000     5.007000000
C    -2.066000000    -2.591000000     5.139000000
H    -2.401000000    -1.611000000     4.809000000
C    -2.631000000    -4.988000000     5.352000000
H    -3.330000000    -5.808000000     5.213000000
C    -1.344000000    -5.179000000     5.950000000
H    -1.107000000    -6.128000000     6.424000000
C    -0.482000000    -4.113000000     6.173000000
H     0.468000000    -4.215000000     6.691000000
C    -0.860000000    -2.826000000     5.751000000
O     0.030000000    -1.779000000     6.071000000
C     1.203000000    -1.574000000     5.395000000
C     2.045000000    -0.607000000     5.868000000
H     1.850000000    -0.177000000     6.848000000
C     3.228000000    -0.345000000     5.150000000
O     4.054000000     0.626000000     5.669000000
C     4.932000000     1.481000000     4.889000000
C     6.267000000     1.444000000     5.173000000
H     6.700000000     0.640000000     5.763000000
C     7.121000000     2.295000000     4.447000000
H     8.199000000     2.177000000     4.516000000
C     6.550000000     3.453000000     3.849000000
H     7.282000000     4.157000000     3.462000000
C     5.187000000     3.534000000     3.611000000
C     4.348000000     2.491000000     4.083000000
H     3.266000000     2.458000000     3.974000000
C    -1.140000000     2.005000000     0.147000000
H    -1.169000000     3.004000000    -0.278000000
C    -0.188000000     1.047000000    -0.295000000
H     0.656000000     1.246000000    -0.950000000
C    -0.297000000    -0.300000000     0.009000000
H     0.339000000    -1.051000000    -0.478000000
C    -1.191000000    -0.631000000     0.991000000
H    -1.151000000    -1.688000000     1.243000000
C    -2.059000000     0.328000000     1.537000000
H    -2.844000000     0.001000000     2.214000000
C    -2.076000000     1.661000000     1.072000000
C    -3.157000000     2.643000000     1.551000000
O    -3.501000000     2.457000000     2.721000000
O    -3.447000000     3.665000000     0.896000000
O    -6.720000000     7.434000000     0.122000000
H    -7.235000000     7.467000000     0.928000000
H    -6.222000000     6.619000000     0.189000000
O    -1.825000000     8.667000000     1.289000000
H    -1.288000000     9.150000000     1.917000000
H    -1.353000000     7.845000000     1.155000000
O    -7.213000000     4.285000000     6.189000000
H    -7.390000000     3.457000000     5.742000000
H    -6.403000000     4.604000000     5.790000000
O    -6.873000000     7.100000000     3.127000000
H    -5.945000000     7.322000000     3.056000000
H    -6.952000000     6.670000000     3.979000000
O    -3.977000000     9.617000000    -0.253000000
H    -3.606000000     9.046000000     0.420000000
H    -4.710000000     9.119000000    -0.612000000
O    -5.250000000     6.597000000     5.514000000
H    -5.652000000     7.125000000     6.204000000
H    -4.940000000     7.236000000     4.873000000
O     0.911000000     4.843000000     5.751000000
H     0.386000000     5.046000000     4.977000000
H     1.023000000     3.892000000     5.722000000
O    -4.289000000     7.957000000     3.507000000
H    -3.870000000     8.797000000     3.322000000
H    -3.686000000     7.305000000     3.149000000
O    -8.258000000     4.452000000     0.062000000
H    -7.421000000     4.772000000     0.398000000
H    -8.054000000     4.117000000    -0.811000000
O    -0.102000000     4.353000000     2.915000000
H    -0.273000000     3.558000000     3.420000000
H     0.652000000     4.132000000     2.368000000
O     0.374000000     2.101000000     5.220000000
H     0.286000000     1.328000000     4.662000000
H    -0.471000000     2.173000000     5.664000000
O    -3.371000000     4.494000000     5.644000000
H    -2.558000000     4.992000000     5.733000000
H    -4.016000000     5.139000000     5.352000000
O    -2.774000000     0.413000000     7.461000000
H    -2.867000000     0.902000000     6.644000000
H    -2.021000000     0.813000000     7.896000000
O    -2.740000000     1.959000000     5.222000000
H    -2.963000000     2.840000000     5.524000000
H    -2.990000000     1.952000000     4.298000000
O    -1.093000000     7.006000000     4.542000000
H    -1.044000000     6.287000000     3.912000000
H    -0.518000000     7.681000000     4.182000000
O    -5.753000000     4.906000000     0.852000000
H    -5.001000000     4.347000000     0.655000000
H    -5.626000000     5.165000000     1.765000000
O    -5.908000000     2.925000000     3.813000000
H    -5.597000000     2.204000000     4.359000000
H    -5.112000000     3.302000000     3.437000000
O    -2.916000000     5.440000000     2.852000000
H    -3.554000000     4.956000000     2.328000000
H    -2.417000000     4.763000000     3.308000000
O    -8.277000000     1.889000000     3.199000000
H    -7.383000000     2.041000000     3.505000000
H    -8.414000000     2.551000000     2.521000000
