215
-1470.71579
C    -4.511000000     2.077000000    -2.540000000
H    -4.906000000     1.082000000    -2.351000000
C    -3.333000000     2.294000000    -3.170000000
C    -2.776000000     3.561000000    -3.302000000
H    -1.810000000     3.738000000    -3.768000000
C    -2.457000000     1.113000000    -3.557000000
O    -3.147000000    -0.023000000    -3.956000000
H    -1.806000000     0.808000000    -2.725000000
O    -1.470000000     1.516000000    -4.623000000
C    -0.192000000     1.032000000    -4.641000000
C     0.746000000     1.826000000    -4.101000000
H     0.414000000     2.807000000    -3.773000000
C     2.068000000     1.408000000    -3.989000000
O     2.895000000     2.260000000    -3.242000000
C     2.380000000     0.096000000    -4.233000000
C     3.802000000    -0.397000000    -4.012000000
H     3.871000000    -1.247000000    -4.695000000
C     3.980000000    -0.936000000    -2.617000000
C     3.865000000    -2.293000000    -2.363000000
H     3.354000000    -2.991000000    -3.021000000
H     4.547000000     0.382000000    -4.186000000
C     1.462000000    -0.806000000    -4.797000000
H     1.740000000    -1.823000000    -5.061000000
C     0.135000000    -0.321000000    -5.040000000
C    -1.071000000    -1.246000000    -5.372000000
H    -0.709000000    -2.031000000    -6.040000000
H    -1.882000000    -0.785000000    -5.940000000
C    -1.725000000    -1.887000000    -4.172000000
C    -1.200000000    -3.052000000    -3.596000000
H    -0.307000000    -3.540000000    -3.977000000
C    -2.768000000    -1.219000000    -3.516000000
C    -3.219000000    -1.674000000    -2.261000000
H    -3.861000000    -1.024000000    -1.671000000
C    -2.710000000    -2.811000000    -1.741000000
O    -3.324000000    -3.160000000    -0.602000000
C    -2.479000000    -3.081000000     0.573000000
C    -3.298000000    -2.571000000     1.760000000
C    -3.007000000    -3.062000000     3.031000000
H    -2.376000000    -3.945000000     3.086000000
C    -4.118000000    -1.469000000     1.581000000
H    -4.453000000    -1.115000000     0.609000000
O    -1.830000000    -4.330000000     0.975000000
H    -1.694000000    -2.332000000     0.392000000
C    -1.775000000    -3.563000000    -2.432000000
C    -1.187000000    -4.877000000    -1.933000000
H    -0.834000000    -5.501000000    -2.756000000
H    -2.059000000    -5.429000000    -1.575000000
C    -0.154000000    -4.725000000    -0.884000000
C     1.138000000    -4.637000000    -1.303000000
H     1.408000000    -4.688000000    -2.355000000
C    -0.523000000    -4.665000000     0.507000000
C     0.502000000    -4.440000000     1.391000000
H     0.176000000    -4.189000000     2.397000000
C     1.839000000    -4.357000000     1.052000000
O     2.645000000    -3.971000000     2.013000000
C     2.998000000    -2.588000000     1.989000000
C     2.945000000    -2.130000000     3.417000000
C     2.514000000    -2.907000000     4.451000000
H     2.214000000    -3.946000000     4.338000000
C     3.244000000    -0.761000000     3.655000000
H     3.480000000    -0.104000000     2.822000000
O     4.280000000    -2.437000000     1.370000000
H     2.255000000    -2.104000000     1.338000000
C     2.185000000    -4.475000000    -0.322000000
C     3.651000000    -4.274000000    -0.860000000
H     3.773000000    -4.743000000    -1.839000000
H     4.382000000    -4.792000000    -0.235000000
C     4.045000000    -2.864000000    -1.095000000
C     4.343000000    -2.004000000     0.013000000
C     4.523000000    -0.632000000    -0.247000000
H     4.673000000     0.032000000     0.601000000
C     4.323000000    -0.103000000    -1.555000000
O     4.324000000     1.265000000    -1.668000000
C     3.045000000     1.966000000    -1.825000000
H     2.253000000     1.324000000    -1.412000000
C     3.009000000     3.325000000    -1.094000000
C     2.263000000     4.448000000    -1.458000000
H     1.838000000     4.450000000    -2.458000000
C     3.551000000     3.385000000     0.203000000
H     3.874000000     2.431000000     0.614000000
C     3.503000000     4.549000000     0.930000000
O     4.120000000     4.644000000     2.173000000
C     2.889000000     5.733000000     0.440000000
H     2.816000000     6.635000000     1.041000000
C     2.236000000     5.642000000    -0.791000000
O     1.458000000     6.707000000    -1.165000000
C     0.573000000     6.769000000    -2.214000000
C    -0.714000000     6.262000000    -2.068000000
H    -0.993000000     5.873000000    -1.092000000
C     0.983000000     7.293000000    -3.433000000
H     2.009000000     7.640000000    -3.531000000
C     0.007000000     7.388000000    -4.476000000
H     0.249000000     7.762000000    -5.467000000
C    -1.259000000     6.834000000    -4.298000000
H    -1.959000000     6.908000000    -5.127000000
C    -1.640000000     6.285000000    -3.106000000
O    -2.974000000     5.924000000    -2.986000000
C    -3.441000000     4.659000000    -2.725000000
C    -4.665000000     4.413000000    -2.126000000
H    -5.144000000     5.331000000    -1.793000000
C    -5.269000000     3.187000000    -2.016000000
O    -6.326000000     3.131000000    -1.120000000
C    -6.670000000     2.011000000    -0.365000000
C    -5.909000000     1.692000000     0.750000000
H    -5.103000000     2.325000000     1.112000000
C    -7.590000000     1.080000000    -0.831000000
H    -8.018000000     1.294000000    -1.807000000
C    -7.900000000    -0.055000000    -0.118000000
H    -8.660000000    -0.734000000    -0.498000000
C    -7.216000000    -0.281000000     1.060000000
H    -7.412000000    -1.248000000     1.516000000
C    -6.166000000     0.509000000     1.491000000
O    -5.393000000     0.256000000     2.578000000
C    -4.588000000    -0.852000000     2.707000000
C    -4.177000000    -1.212000000     3.995000000
H    -4.488000000    -0.614000000     4.848000000
C    -3.371000000    -2.326000000     4.158000000
O    -2.827000000    -2.476000000     5.355000000
C    -1.829000000    -3.386000000     5.790000000
C    -0.529000000    -2.835000000     5.855000000
H    -0.464000000    -1.752000000     5.792000000
C    -2.210000000    -4.685000000     5.933000000
H    -3.268000000    -4.928000000     5.877000000
C    -1.185000000    -5.549000000     6.198000000
H    -1.443000000    -6.594000000     6.350000000
C     0.136000000    -5.074000000     6.369000000
H     0.831000000    -5.852000000     6.674000000
C     0.446000000    -3.742000000     6.201000000
O     1.671000000    -3.222000000     6.588000000
C     2.418000000    -2.446000000     5.755000000
C     2.808000000    -1.154000000     6.038000000
H     2.795000000    -0.723000000     7.036000000
C     3.252000000    -0.271000000     4.976000000
O     3.587000000     1.030000000     5.227000000
C     4.398000000     1.761000000     4.478000000
C     5.726000000     1.467000000     4.377000000
H     6.112000000     0.731000000     5.077000000
C     6.515000000     2.173000000     3.455000000
H     7.570000000     1.924000000     3.383000000
C     5.933000000     3.195000000     2.719000000
H     6.550000000     3.730000000     2.001000000
C     4.617000000     3.559000000     2.901000000
C     3.842000000     2.876000000     3.800000000
H     2.820000000     3.219000000     3.934000000
C    -0.909000000     1.401000000    -0.245000000
H    -1.158000000     2.220000000    -0.916000000
C    -0.156000000     0.261000000    -0.703000000
H     0.060000000     0.037000000    -1.745000000
C     0.260000000    -0.731000000     0.220000000
H     0.773000000    -1.626000000    -0.157000000
C    -0.126000000    -0.602000000     1.573000000
H    -0.004000000    -1.382000000     2.319000000
C    -0.876000000     0.488000000     1.907000000
H    -1.136000000     0.642000000     2.951000000
C    -1.150000000     1.595000000     1.092000000
C    -1.791000000     2.803000000     1.738000000
O    -1.972000000     2.871000000     2.952000000
O    -2.115000000     3.737000000     1.041000000
O    -5.268000000     7.710000000     0.603000000
H    -6.203000000     7.563000000     0.744000000
H    -4.879000000     6.836000000     0.641000000
O    -2.210000000     7.977000000     0.390000000
H    -2.286000000     7.267000000     1.028000000
H    -3.111000000     8.155000000     0.120000000
O    -6.837000000     1.347000000     4.891000000
H    -6.812000000     2.289000000     5.060000000
H    -6.279000000     1.226000000     4.123000000
O    -0.811000000     2.021000000     8.131000000
H    -1.613000000     2.487000000     8.368000000
H    -0.206000000     2.711000000     7.857000000
O    -0.116000000     9.686000000     0.127000000
H    -0.819000000     9.055000000     0.276000000
H     0.346000000     9.353000000    -0.643000000
O    -2.433000000     8.593000000     3.817000000
H    -2.394000000     7.822000000     3.250000000
H    -1.517000000     8.829000000     3.963000000
O    -2.896000000     5.205000000     6.043000000
H    -2.859000000     5.808000000     6.785000000
H    -2.163000000     5.467000000     5.485000000
O    -7.098000000     5.253000000     0.479000000
H    -6.166000000     5.114000000     0.312000000
H    -7.166000000     5.294000000     1.433000000
O     0.596000000     4.902000000     3.330000000
H     0.761000000     4.797000000     2.393000000
H     0.320000000     4.034000000     3.623000000
O     0.545000000     2.392000000     4.691000000
H    -0.369000000     2.109000000     4.645000000
H     1.044000000     1.578000000     4.758000000
O     1.137000000     3.857000000     6.975000000
H     1.028000000     3.225000000     6.265000000
H     2.082000000     3.890000000     7.123000000
O    -4.027000000     2.774000000     6.685000000
H    -4.968000000     2.757000000     6.514000000
H    -3.728000000     3.598000000     6.300000000
O     0.009000000     5.921000000     5.707000000
H     0.362000000     5.625000000     4.868000000
H     0.096000000     5.162000000     6.284000000
O    -3.463000000    -0.115000000     7.537000000
H    -2.829000000     0.467000000     7.118000000
H    -3.252000000    -0.984000000     7.195000000
O    -2.158000000     1.312000000     5.123000000
H    -2.748000000     1.782000000     5.712000000
H    -2.240000000     1.771000000     4.287000000
O    -4.487000000     5.190000000     0.985000000
H    -3.685000000     4.778000000     0.663000000
H    -4.578000000     4.869000000     1.882000000
O    -4.076000000     4.206000000     3.878000000
H    -3.551000000     4.611000000     4.569000000
H    -3.476000000     3.597000000     3.447000000
O    -1.682000000     6.175000000     2.576000000
H    -2.001000000     5.302000000     2.350000000
H    -0.801000000     6.026000000     2.920000000
O    -6.674000000     4.980000000     3.164000000
H    -5.793000000     4.857000000     3.517000000
H    -7.158000000     5.407000000     3.871000000
