215
-1476.57329
C    -4.586000000     1.966000000    -2.501000000
H    -4.937000000     0.956000000    -2.308000000
C    -3.418000000     2.156000000    -3.239000000
C    -3.083000000     3.449000000    -3.549000000
H    -2.241000000     3.667000000    -4.201000000
C    -2.544000000     0.907000000    -3.613000000
O    -3.355000000    -0.250000000    -3.990000000
H    -1.831000000     0.612000000    -2.830000000
O    -1.768000000     1.290000000    -4.753000000
C    -0.403000000     0.891000000    -4.735000000
C     0.474000000     1.803000000    -4.266000000
H     0.076000000     2.776000000    -3.989000000
C     1.772000000     1.429000000    -4.162000000
O     2.523000000     2.278000000    -3.364000000
C     2.198000000     0.149000000    -4.436000000
C     3.617000000    -0.355000000    -4.088000000
H     3.762000000    -1.230000000    -4.726000000
C     3.768000000    -0.826000000    -2.681000000
C     3.797000000    -2.213000000    -2.393000000
H     3.569000000    -2.934000000    -3.174000000
H     4.330000000     0.451000000    -4.271000000
C     1.238000000    -0.735000000    -4.912000000
H     1.517000000    -1.772000000    -5.082000000
C    -0.073000000    -0.412000000    -5.025000000
C    -1.111000000    -1.468000000    -5.439000000
H    -0.680000000    -2.261000000    -6.054000000
H    -1.862000000    -1.088000000    -6.135000000
C    -1.797000000    -2.088000000    -4.241000000
C    -1.181000000    -3.247000000    -3.660000000
H    -0.328000000    -3.656000000    -4.195000000
C    -2.852000000    -1.506000000    -3.560000000
C    -3.185000000    -1.983000000    -2.325000000
H    -3.927000000    -1.410000000    -1.775000000
C    -2.602000000    -3.110000000    -1.759000000
O    -3.013000000    -3.487000000    -0.524000000
C    -2.123000000    -3.359000000     0.609000000
C    -2.870000000    -2.756000000     1.759000000
C    -2.695000000    -3.182000000     3.065000000
H    -2.063000000    -4.045000000     3.256000000
C    -3.706000000    -1.631000000     1.514000000
H    -3.788000000    -1.319000000     0.476000000
O    -1.545000000    -4.658000000     0.959000000
H    -1.357000000    -2.581000000     0.478000000
C    -1.555000000    -3.735000000    -2.395000000
C    -0.887000000    -5.029000000    -1.911000000
H    -0.449000000    -5.555000000    -2.763000000
H    -1.740000000    -5.619000000    -1.569000000
C     0.157000000    -4.931000000    -0.778000000
C     1.500000000    -4.885000000    -1.149000000
H     1.753000000    -5.118000000    -2.180000000
C    -0.217000000    -4.730000000     0.563000000
C     0.834000000    -4.557000000     1.501000000
H     0.631000000    -4.472000000     2.565000000
C     2.161000000    -4.433000000     1.090000000
O     3.043000000    -3.943000000     1.993000000
C     3.231000000    -2.478000000     1.955000000
C     3.196000000    -1.912000000     3.380000000
C     2.183000000    -2.319000000     4.296000000
H     1.487000000    -3.085000000     3.964000000
C     3.958000000    -0.781000000     3.711000000
H     4.732000000    -0.452000000     3.021000000
O     4.455000000    -2.140000000     1.306000000
H     2.377000000    -1.992000000     1.459000000
C     2.492000000    -4.471000000    -0.286000000
C     3.858000000    -4.190000000    -0.793000000
H     4.066000000    -4.877000000    -1.616000000
H     4.502000000    -4.482000000     0.039000000
C     4.071000000    -2.675000000    -1.102000000
C     4.346000000    -1.769000000    -0.082000000
C     4.466000000    -0.410000000    -0.377000000
H     4.798000000     0.325000000     0.351000000
C     4.214000000     0.039000000    -1.682000000
O     4.075000000     1.405000000    -1.846000000
C     2.781000000     2.018000000    -1.968000000
H     2.079000000     1.239000000    -1.634000000
C     2.636000000     3.199000000    -1.034000000
C     1.749000000     4.226000000    -1.352000000
H     1.241000000     4.143000000    -2.310000000
C     3.262000000     3.214000000     0.200000000
H     3.898000000     2.411000000     0.564000000
C     3.015000000     4.243000000     1.070000000
O     3.232000000     4.263000000     2.467000000
C     2.097000000     5.246000000     0.754000000
H     1.863000000     6.030000000     1.470000000
C     1.519000000     5.288000000    -0.503000000
O     0.584000000     6.257000000    -0.681000000
C    -0.039000000     6.530000000    -1.910000000
C    -1.319000000     6.160000000    -2.035000000
H    -1.792000000     5.609000000    -1.227000000
C     0.654000000     7.145000000    -2.965000000
H     1.728000000     7.301000000    -2.901000000
C    -0.054000000     7.504000000    -4.090000000
H     0.421000000     8.066000000    -4.891000000
C    -1.397000000     7.168000000    -4.219000000
H    -1.995000000     7.390000000    -5.099000000
C    -1.992000000     6.373000000    -3.222000000
O    -3.284000000     5.887000000    -3.442000000
C    -3.745000000     4.591000000    -3.103000000
C    -4.888000000     4.388000000    -2.315000000
H    -5.494000000     5.225000000    -1.976000000
C    -5.326000000     3.071000000    -2.021000000
O    -6.444000000     2.857000000    -1.344000000
C    -6.656000000     1.773000000    -0.478000000
C    -5.668000000     1.348000000     0.420000000
H    -4.724000000     1.887000000     0.416000000
C    -7.799000000     1.018000000    -0.497000000
H    -8.588000000     1.375000000    -1.154000000
C    -8.001000000    -0.065000000     0.456000000
H    -8.897000000    -0.673000000     0.363000000
C    -7.081000000    -0.341000000     1.485000000
H    -7.301000000    -1.105000000     2.226000000
C    -5.919000000     0.409000000     1.440000000
O    -5.045000000     0.195000000     2.446000000
C    -4.318000000    -0.958000000     2.592000000
C    -4.092000000    -1.322000000     3.901000000
H    -4.506000000    -0.736000000     4.718000000
C    -3.343000000    -2.479000000     4.143000000
O    -3.169000000    -2.916000000     5.451000000
C    -2.011000000    -3.376000000     5.861000000
C    -0.980000000    -2.441000000     6.217000000
H    -1.081000000    -1.359000000     6.187000000
C    -1.803000000    -4.775000000     5.965000000
H    -2.560000000    -5.541000000     5.821000000
C    -0.530000000    -5.181000000     6.138000000
H    -0.353000000    -6.253000000     6.178000000
C     0.585000000    -4.299000000     6.247000000
H     1.594000000    -4.703000000     6.232000000
C     0.291000000    -2.966000000     6.369000000
O     1.214000000    -1.992000000     6.537000000
C     2.185000000    -1.672000000     5.530000000
C     2.999000000    -0.606000000     5.837000000
H     2.892000000    -0.136000000     6.811000000
C     3.945000000    -0.240000000     4.993000000
O     4.877000000     0.755000000     5.323000000
C     5.065000000     1.855000000     4.515000000
C     6.389000000     2.067000000     4.057000000
H     7.179000000     1.441000000     4.464000000
C     6.658000000     3.096000000     3.152000000
H     7.668000000     3.335000000     2.826000000
C     5.565000000     3.783000000     2.619000000
H     5.644000000     4.478000000     1.787000000
C     4.247000000     3.465000000     2.964000000
C     4.028000000     2.566000000     4.012000000
H     2.989000000     2.351000000     4.250000000
C    -0.554000000     1.299000000    -0.079000000
H    -1.108000000     1.952000000    -0.749000000
C     0.127000000     0.142000000    -0.549000000
H     0.204000000     0.080000000    -1.631000000
C     0.393000000    -0.862000000     0.405000000
H     0.874000000    -1.817000000    -0.005000000
C     0.110000000    -0.693000000     1.778000000
H     0.276000000    -1.595000000     2.362000000
C    -0.374000000     0.522000000     2.241000000
H    -0.584000000     0.633000000     3.302000000
C    -0.796000000     1.482000000     1.285000000
C    -1.377000000     2.759000000     1.785000000
O    -1.568000000     2.897000000     2.938000000
O    -1.618000000     3.641000000     0.999000000
O    -4.460000000     7.453000000     0.090000000
H    -4.656000000     7.640000000     1.008000000
H    -3.873000000     6.698000000     0.118000000
O    -1.773000000     9.104000000    -0.435000000
H    -2.106000000     8.811000000     0.413000000
H    -2.496000000     8.949000000    -1.043000000
O    -4.867000000     8.677000000     2.737000000
H    -4.724000000     9.623000000     2.760000000
H    -4.070000000     8.304000000     3.112000000
O    -7.602000000     1.875000000     3.739000000
H    -7.272000000     2.450000000     4.429000000
H    -6.981000000     1.986000000     3.018000000
O    -3.730000000     0.227000000     7.621000000
H    -4.448000000     0.365000000     8.238000000
H    -3.848000000     0.909000000     6.960000000
O    -2.287000000     7.854000000     3.444000000
H    -2.027000000     7.283000000     2.721000000
H    -1.557000000     8.466000000     3.540000000
O     2.152000000     2.905000000     7.393000000
H     2.775000000     3.024000000     6.676000000
H     2.328000000     3.637000000     7.986000000
O    -3.155000000     5.910000000     5.308000000
H    -2.857000000     6.740000000     4.938000000
H    -2.365000000     5.514000000     5.678000000
O    -5.632000000     5.378000000     6.339000000
H    -5.370000000     5.742000000     7.184000000
H    -5.017000000     5.759000000     5.712000000
O    -6.960000000     5.075000000     0.834000000
H    -7.040000000     4.228000000     0.395000000
H    -6.019000000     5.191000000     0.963000000
O     0.650000000     3.988000000     4.143000000
H     1.191000000     4.155000000     3.372000000
H    -0.201000000     3.729000000     3.788000000
O     0.413000000     0.928000000     7.614000000
H     0.880000000     1.701000000     7.932000000
H     0.009000000     1.213000000     6.795000000
O    -4.469000000     2.102000000     5.469000000
H    -5.395000000     2.072000000     5.708000000
H    -4.451000000     2.578000000     4.639000000
O    -0.862000000     5.120000000     6.579000000
H    -0.601000000     4.577000000     5.836000000
H    -1.066000000     4.494000000     7.273000000
O     2.104000000     5.763000000     6.064000000
H     1.459000000     6.173000000     6.640000000
H     1.596000000     5.148000000     5.535000000
O    -1.691000000     1.985000000     5.321000000
H    -2.613000000     1.801000000     5.499000000
H    -1.679000000     2.293000000     4.414000000
O    -4.089000000     4.790000000     0.975000000
H    -3.235000000     4.362000000     0.922000000
H    -4.427000000     4.545000000     1.836000000
O    -4.225000000     3.911000000     3.487000000
H    -3.957000000     4.655000000     4.027000000
H    -3.412000000     3.599000000     3.090000000
O    -1.353000000     6.362000000     1.436000000
H    -0.715000000     6.482000000     0.732000000
H    -1.343000000     5.421000000     1.612000000
