215
-1424.18401
C    -4.257000000     2.417000000    -1.542000000
H    -4.510000000     1.371000000    -1.389000000
C    -3.151000000     2.781000000    -2.380000000
C    -2.834000000     4.082000000    -2.565000000
H    -1.990000000     4.365000000    -3.190000000
C    -2.491000000     1.640000000    -3.117000000
O    -3.445000000     0.699000000    -3.609000000
H    -1.800000000     1.170000000    -2.402000000
O    -1.782000000     2.053000000    -4.252000000
C    -0.536000000     1.447000000    -4.402000000
C     0.537000000     2.134000000    -3.769000000
H     0.294000000     3.058000000    -3.251000000
C     1.798000000     1.668000000    -3.792000000
O     2.689000000     2.443000000    -3.109000000
C     2.026000000     0.435000000    -4.349000000
C     3.449000000    -0.140000000    -4.398000000
H     3.517000000    -0.799000000    -5.266000000
C     3.778000000    -0.853000000    -3.131000000
C     3.545000000    -2.231000000    -3.053000000
H     3.231000000    -2.754000000    -3.952000000
H     4.072000000     0.735000000    -4.593000000
C     0.972000000    -0.399000000    -4.909000000
H     1.161000000    -1.406000000    -5.273000000
C    -0.299000000     0.157000000    -4.884000000
C    -1.450000000    -0.653000000    -5.403000000
H    -1.116000000    -1.380000000    -6.146000000
H    -2.102000000     0.070000000    -5.897000000
C    -2.185000000    -1.312000000    -4.303000000
C    -1.822000000    -2.617000000    -3.996000000
H    -1.008000000    -3.091000000    -4.539000000
C    -3.113000000    -0.672000000    -3.410000000
C    -3.686000000    -1.361000000    -2.382000000
H    -4.417000000    -0.911000000    -1.715000000
C    -3.319000000    -2.649000000    -2.080000000
O    -3.863000000    -3.135000000    -0.921000000
C    -2.914000000    -3.174000000     0.244000000
C    -3.625000000    -2.880000000     1.551000000
C    -3.273000000    -3.575000000     2.710000000
H    -2.557000000    -4.390000000     2.644000000
C    -4.507000000    -1.824000000     1.637000000
H    -4.651000000    -1.211000000     0.751000000
O    -2.178000000    -4.378000000     0.279000000
H    -2.139000000    -2.404000000     0.117000000
C    -2.337000000    -3.308000000    -2.875000000
C    -1.808000000    -4.681000000    -2.599000000
H    -1.549000000    -5.274000000    -3.478000000
H    -2.577000000    -5.273000000    -2.098000000
C    -0.610000000    -4.661000000    -1.533000000
C     0.727000000    -4.718000000    -2.001000000
H     0.947000000    -4.767000000    -3.065000000
C    -0.919000000    -4.443000000    -0.211000000
C     0.149000000    -4.245000000     0.654000000
H    -0.128000000    -4.083000000     1.692000000
C     1.507000000    -4.338000000     0.236000000
O     2.480000000    -4.111000000     1.120000000
C     2.962000000    -2.765000000     1.311000000
C     3.066000000    -2.276000000     2.747000000
C     2.098000000    -2.609000000     3.728000000
H     1.338000000    -3.328000000     3.432000000
C     4.077000000    -1.365000000     3.047000000
H     4.925000000    -1.250000000     2.377000000
O     4.187000000    -2.724000000     0.520000000
H     2.124000000    -2.199000000     0.879000000
C     1.783000000    -4.456000000    -1.125000000
C     3.142000000    -4.337000000    -1.702000000
H     3.139000000    -4.902000000    -2.636000000
H     3.842000000    -4.789000000    -0.996000000
C     3.539000000    -2.843000000    -1.800000000
C     4.015000000    -2.152000000    -0.682000000
C     4.296000000    -0.801000000    -0.831000000
H     4.585000000    -0.244000000     0.057000000
C     4.186000000    -0.117000000    -2.013000000
O     4.316000000     1.248000000    -1.912000000
C     3.120000000     1.941000000    -1.789000000
H     2.321000000     1.254000000    -1.472000000
C     3.142000000     3.095000000    -0.743000000
C     2.222000000     4.133000000    -0.757000000
H     1.420000000     4.260000000    -1.480000000
C     4.110000000     3.034000000     0.256000000
H     4.762000000     2.164000000     0.285000000
C     4.172000000     3.957000000     1.282000000
O     5.025000000     3.999000000     2.319000000
C     3.210000000     4.976000000     1.262000000
H     3.283000000     5.823000000     1.940000000
C     2.284000000     5.058000000     0.223000000
O     1.400000000     6.078000000     0.281000000
C     0.620000000     6.581000000    -0.759000000
C    -0.814000000     6.458000000    -0.686000000
H    -1.259000000     6.092000000     0.235000000
C     1.261000000     7.031000000    -1.953000000
H     2.341000000     7.071000000    -2.074000000
C     0.347000000     7.378000000    -2.982000000
H     0.758000000     7.938000000    -3.818000000
C    -0.982000000     7.287000000    -2.910000000
H    -1.573000000     7.414000000    -3.813000000
C    -1.545000000     6.705000000    -1.809000000
O    -2.870000000     6.460000000    -1.763000000
C    -3.360000000     5.111000000    -1.767000000
C    -4.457000000     4.715000000    -0.944000000
H    -4.875000000     5.451000000    -0.262000000
C    -4.927000000     3.434000000    -0.876000000
O    -6.098000000     3.259000000    -0.220000000
C    -6.530000000     2.049000000     0.225000000
C    -5.916000000     1.524000000     1.358000000
H    -5.071000000     2.024000000     1.823000000
C    -7.625000000     1.473000000    -0.387000000
H    -8.117000000     1.909000000    -1.252000000
C    -8.118000000     0.273000000     0.114000000
H    -8.958000000    -0.175000000    -0.412000000
C    -7.525000000    -0.351000000     1.199000000
H    -7.936000000    -1.213000000     1.717000000
C    -6.434000000     0.316000000     1.826000000
O    -5.913000000    -0.346000000     2.933000000
C    -5.056000000    -1.369000000     2.876000000
C    -4.754000000    -2.173000000     4.025000000
H    -5.295000000    -2.047000000     4.960000000
C    -3.786000000    -3.186000000     3.923000000
O    -3.351000000    -3.778000000     5.062000000
C    -2.100000000    -3.835000000     5.563000000
C    -1.172000000    -2.781000000     5.546000000
H    -1.429000000    -1.770000000     5.241000000
C    -1.618000000    -5.120000000     5.926000000
H    -2.251000000    -6.000000000     5.844000000
C    -0.350000000    -5.315000000     6.387000000
H    -0.054000000    -6.312000000     6.705000000
C     0.538000000    -4.281000000     6.341000000
H     1.563000000    -4.357000000     6.693000000
C     0.150000000    -3.084000000     5.778000000
O     0.995000000    -2.024000000     5.781000000
C     2.113000000    -1.917000000     4.930000000
C     3.177000000    -1.043000000     5.147000000
H     3.210000000    -0.380000000     6.008000000
C     4.151000000    -0.774000000     4.235000000
O     5.234000000     0.004000000     4.604000000
C     5.907000000     0.856000000     3.773000000
C     7.323000000     0.810000000     3.638000000
H     7.952000000     0.061000000     4.114000000
C     7.856000000     1.925000000     2.942000000
H     8.912000000     1.862000000     2.695000000
C     7.149000000     3.027000000     2.489000000
H     7.545000000     3.918000000     2.008000000
C     5.743000000     2.989000000     2.740000000
C     5.133000000     1.931000000     3.384000000
H     4.055000000     1.868000000     3.506000000
C    -0.526000000     2.080000000     0.779000000
H    -0.832000000     3.114000000     0.637000000
C    -0.252000000     1.294000000    -0.322000000
H    -0.264000000     1.713000000    -1.325000000
C     0.086000000    -0.023000000    -0.060000000
H     0.467000000    -0.625000000    -0.865000000
C     0.040000000    -0.547000000     1.276000000
H     0.327000000    -1.562000000     1.536000000
C    -0.201000000     0.269000000     2.338000000
H    -0.172000000    -0.117000000     3.354000000
C    -0.564000000     1.583000000     2.094000000
C    -0.834000000     2.425000000     3.280000000
O    -0.519000000     1.999000000     4.388000000
O    -1.556000000     3.332000000     3.112000000
O     0.168000000     6.199000000     2.862000000
H     1.124000000     6.215000000     2.904000000
H    -0.046000000     5.300000000     2.612000000
O    -1.996000000     2.480000000     9.319000000
H    -1.926000000     2.005000000     8.491000000
H    -2.587000000     3.207000000     9.129000000
O     0.687000000    -0.588000000     8.088000000
H     1.095000000    -0.941000000     7.298000000
H     0.044000000     0.043000000     7.764000000
O    -1.874000000     6.438000000     7.558000000
H    -1.734000000     6.141000000     6.659000000
H    -1.098000000     6.959000000     7.762000000
O    -1.754000000     8.025000000     1.997000000
H    -2.353000000     7.851000000     2.723000000
H    -1.146000000     7.286000000     2.006000000
O    -4.760000000     5.165000000     6.132000000
H    -4.686000000     5.532000000     7.013000000
H    -5.688000000     4.952000000     6.039000000
O    -5.572000000     6.057000000     2.809000000
H    -4.812000000     5.485000000     2.699000000
H    -6.326000000     5.480000000     2.688000000
O     0.407000000     7.129000000     5.568000000
H     0.433000000     6.177000000     5.663000000
H    -0.069000000     7.276000000     4.751000000
O     3.255000000     1.195000000     8.337000000
H     2.822000000     1.931000000     8.769000000
H     2.857000000     1.160000000     7.467000000
O    -2.911000000    -1.535000000     7.616000000
H    -3.773000000    -1.128000000     7.701000000
H    -2.357000000    -0.847000000     7.247000000
O     0.233000000     4.551000000     6.203000000
H     0.367000000     3.708000000     6.637000000
H    -0.586000000     4.442000000     5.718000000
O     3.618000000     4.038000000     5.590000000
H     3.906000000     4.701000000     4.962000000
H     4.343000000     3.966000000     6.211000000
O     1.664000000     1.906000000     5.893000000
H     2.259000000     2.524000000     5.469000000
H     0.869000000     1.935000000     5.360000000
O    -3.539000000     4.274000000     1.733000000
H    -2.775000000     4.063000000     2.270000000
H    -3.563000000     3.584000000     1.070000000
O    -3.619000000     2.044000000     6.798000000
H    -4.551000000     2.010000000     7.015000000
H    -3.467000000     2.954000000     6.541000000
O     2.395000000     6.224000000     7.199000000
H     1.738000000     6.666000000     6.661000000
H     2.322000000     5.301000000     6.956000000
O    -1.474000000     0.551000000     6.321000000
H    -2.266000000     1.077000000     6.431000000
H    -1.110000000     0.838000000     5.484000000
O    -2.259000000     5.263000000     4.872000000
H    -3.167000000     5.080000000     5.115000000
H    -2.014000000     4.538000000     4.297000000
O    -7.000000000     1.952000000     4.971000000
H    -6.553000000     2.484000000     5.629000000
H    -6.871000000     2.427000000     4.150000000
