215
-1467.43540
C    -2.170000000    -0.024000000    -4.710000000
H    -2.663000000    -0.984000000    -4.586000000
C    -0.812000000     0.048000000    -4.468000000
C    -0.202000000     1.312000000    -4.522000000
H     0.848000000     1.402000000    -4.255000000
C    -0.099000000    -1.186000000    -3.967000000
O    -0.836000000    -2.432000000    -4.078000000
H     0.126000000    -1.021000000    -2.903000000
O     1.227000000    -1.459000000    -4.500000000
C     2.215000000    -1.756000000    -3.625000000
C     3.048000000    -0.752000000    -3.280000000
H     2.818000000     0.239000000    -3.663000000
C     3.968000000    -0.909000000    -2.276000000
O     4.652000000     0.158000000    -1.776000000
C     4.201000000    -2.189000000    -1.722000000
C     5.142000000    -2.396000000    -0.494000000
H     5.390000000    -3.458000000    -0.434000000
C     4.362000000    -1.875000000     0.764000000
C     3.872000000    -2.825000000     1.651000000
H     3.972000000    -3.859000000     1.332000000
H     6.074000000    -1.852000000    -0.665000000
C     3.426000000    -3.245000000    -2.170000000
H     3.732000000    -4.229000000    -1.824000000
C     2.397000000    -3.042000000    -3.101000000
C     1.473000000    -4.133000000    -3.472000000
H     2.011000000    -5.077000000    -3.362000000
H     1.160000000    -4.140000000    -4.518000000
C     0.220000000    -4.085000000    -2.615000000
C     0.181000000    -4.763000000    -1.383000000
H     1.084000000    -5.292000000    -1.089000000
C    -0.885000000    -3.257000000    -3.020000000
C    -2.025000000    -3.256000000    -2.273000000
H    -2.930000000    -2.725000000    -2.559000000
C    -2.034000000    -3.938000000    -1.011000000
O    -3.203000000    -3.726000000    -0.259000000
C    -2.950000000    -2.694000000     0.695000000
C    -4.045000000    -1.685000000     0.664000000
C    -4.335000000    -0.943000000     1.769000000
H    -3.727000000    -1.047000000     2.663000000
C    -4.861000000    -1.526000000    -0.465000000
H    -4.732000000    -2.205000000    -1.304000000
O    -2.846000000    -3.237000000     1.975000000
H    -2.017000000    -2.151000000     0.489000000
C    -0.926000000    -4.602000000    -0.505000000
C    -0.993000000    -5.287000000     0.837000000
H    -0.278000000    -6.113000000     0.845000000
H    -1.964000000    -5.697000000     1.122000000
C    -0.601000000    -4.338000000     1.922000000
C     0.648000000    -4.482000000     2.509000000
H     1.313000000    -5.227000000     2.079000000
C    -1.506000000    -3.384000000     2.436000000
C    -1.176000000    -2.674000000     3.573000000
H    -1.909000000    -1.985000000     3.985000000
C     0.121000000    -2.804000000     4.066000000
O     0.542000000    -1.689000000     4.780000000
C     1.113000000    -0.568000000     4.175000000
C     0.456000000     0.730000000     4.617000000
C    -0.813000000     0.729000000     5.220000000
H    -1.285000000    -0.208000000     5.502000000
C     1.088000000     1.988000000     4.345000000
H     2.093000000     2.034000000     3.932000000
O     2.576000000    -0.603000000     4.329000000
H     0.886000000    -0.575000000     3.098000000
C     1.103000000    -3.649000000     3.453000000
C     2.593000000    -3.491000000     3.752000000
H     3.105000000    -4.451000000     3.665000000
H     2.791000000    -3.195000000     4.785000000
C     3.226000000    -2.475000000     2.865000000
C     3.212000000    -1.117000000     3.245000000
C     3.865000000    -0.171000000     2.459000000
H     3.815000000     0.864000000     2.789000000
C     4.306000000    -0.519000000     1.191000000
O     4.807000000     0.458000000     0.400000000
C     4.060000000     0.852000000    -0.711000000
H     3.024000000     0.500000000    -0.597000000
C     4.032000000     2.394000000    -0.872000000
C     3.871000000     2.997000000    -2.136000000
H     3.916000000     2.376000000    -3.027000000
C     4.072000000     3.183000000     0.274000000
H     4.058000000     2.628000000     1.209000000
C     4.141000000     4.595000000     0.114000000
O     4.244000000     5.369000000     1.212000000
C     4.189000000     5.184000000    -1.139000000
H     4.289000000     6.264000000    -1.200000000
C     3.983000000     4.368000000    -2.266000000
O     3.996000000     4.916000000    -3.533000000
C     3.112000000     4.571000000    -4.556000000
C     1.757000000     4.457000000    -4.300000000
H     1.377000000     4.615000000    -3.294000000
C     3.546000000     4.384000000    -5.845000000
H     4.606000000     4.554000000    -6.013000000
C     2.717000000     4.027000000    -6.858000000
H     3.138000000     3.951000000    -7.857000000
C     1.395000000     3.803000000    -6.596000000
H     0.852000000     3.417000000    -7.454000000
C     0.902000000     4.023000000    -5.319000000
O    -0.381000000     3.651000000    -4.910000000
C    -0.918000000     2.438000000    -4.910000000
C    -2.267000000     2.340000000    -5.176000000
H    -2.769000000     3.249000000    -5.497000000
C    -2.884000000     1.133000000    -5.033000000
O    -4.228000000     1.089000000    -5.147000000
C    -5.076000000     0.090000000    -4.645000000
C    -5.574000000     0.286000000    -3.364000000
H    -5.187000000     1.025000000    -2.668000000
C    -5.704000000    -0.834000000    -5.431000000
H    -5.300000000    -0.770000000    -6.438000000
C    -6.705000000    -1.708000000    -4.983000000
H    -7.061000000    -2.490000000    -5.649000000
C    -7.049000000    -1.595000000    -3.652000000
H    -7.871000000    -2.191000000    -3.266000000
C    -6.485000000    -0.632000000    -2.845000000
O    -6.830000000    -0.539000000    -1.538000000
C    -6.003000000    -0.761000000    -0.446000000
C    -6.260000000     0.004000000     0.667000000
H    -7.104000000     0.689000000     0.687000000
C    -5.453000000    -0.118000000     1.790000000
O    -5.877000000     0.550000000     2.918000000
C    -5.332000000     0.484000000     4.155000000
C    -4.209000000     1.254000000     4.514000000
H    -3.770000000     1.849000000     3.716000000
C    -5.853000000    -0.499000000     4.995000000
H    -6.783000000    -0.918000000     4.619000000
C    -5.425000000    -0.593000000     6.332000000
H    -6.005000000    -1.232000000     6.992000000
C    -4.320000000     0.216000000     6.735000000
H    -3.905000000     0.149000000     7.737000000
C    -3.745000000     1.123000000     5.810000000
O    -2.685000000     1.891000000     6.275000000
C    -1.481000000     1.926000000     5.529000000
C    -0.791000000     3.128000000     5.276000000
H    -1.277000000     4.081000000     5.469000000
C     0.470000000     3.183000000     4.716000000
O     1.065000000     4.424000000     4.494000000
C     2.400000000     4.482000000     4.187000000
C     3.456000000     4.359000000     5.170000000
H     3.201000000     4.224000000     6.218000000
C     4.750000000     4.443000000     4.784000000
H     5.540000000     4.409000000     5.530000000
C     5.074000000     4.650000000     3.448000000
H     6.094000000     4.653000000     3.072000000
C     4.036000000     4.997000000     2.494000000
C     2.715000000     4.810000000     2.876000000
H     2.003000000     4.864000000     2.057000000
C    -0.790000000     1.312000000     1.268000000
H    -1.336000000     1.185000000     2.200000000
C    -0.153000000     0.181000000     0.849000000
H    -0.431000000    -0.766000000     1.304000000
C     0.479000000     0.192000000    -0.415000000
H     0.946000000    -0.676000000    -0.950000000
C     0.632000000     1.397000000    -1.076000000
H     1.077000000     1.423000000    -2.067000000
C     0.080000000     2.563000000    -0.635000000
H     0.138000000     3.458000000    -1.249000000
C    -0.720000000     2.492000000     0.488000000
C    -1.552000000     3.688000000     0.863000000
O    -1.306000000     4.729000000     0.338000000
O    -2.516000000     3.533000000     1.614000000
O     0.890000000     5.174000000     7.574000000
H     0.311000000     5.931000000     7.665000000
H     0.816000000     4.925000000     6.653000000
O     2.073000000     8.283000000     4.422000000
H     1.593000000     8.729000000     5.119000000
H     1.730000000     7.389000000     4.429000000
O    -6.097000000     3.915000000     5.555000000
H    -5.360000000     3.599000000     5.032000000
H    -5.920000000     4.847000000     5.681000000
O    -5.963000000     5.439000000    -0.509000000
H    -5.771000000     4.785000000     0.163000000
H    -5.657000000     6.265000000    -0.135000000
O    -3.603000000     7.855000000     3.334000000
H    -3.207000000     7.584000000     2.505000000
H    -4.370000000     8.366000000     3.077000000
O    -1.792000000     9.939000000    -0.527000000
H    -1.339000000    10.638000000    -0.055000000
H    -2.627000000    10.328000000    -0.788000000
O    -1.738000000     8.085000000     5.475000000
H    -1.422000000     8.985000000     5.392000000
H    -2.364000000     7.984000000     4.758000000
O    -4.927000000     7.809000000    -0.195000000
H    -4.704000000     8.403000000    -0.911000000
H    -4.082000000     7.513000000     0.144000000
O     1.632000000     7.847000000     0.755000000
H     1.308000000     7.308000000     0.034000000
H     1.192000000     7.500000000     1.531000000
O    -2.278000000     5.918000000    -4.817000000
H    -2.487000000     6.433000000    -4.038000000
H    -1.461000000     5.471000000    -4.597000000
O    -0.231000000     6.261000000     2.331000000
H    -0.887000000     5.823000000     1.789000000
H    -0.205000000     5.748000000     3.138000000
O     0.446000000     6.506000000    -1.135000000
H    -0.145000000     5.901000000    -0.688000000
H    -0.106000000     6.951000000    -1.778000000
O    -7.368000000     3.235000000    -1.746000000
H    -6.848000000     2.957000000    -2.500000000
H    -6.946000000     4.040000000    -1.447000000
O    -3.000000000     5.230000000    -2.044000000
H    -2.767000000     4.693000000    -1.287000000
H    -3.866000000     4.915000000    -2.304000000
O    -4.981000000     3.323000000     1.094000000
H    -5.169000000     2.789000000     1.866000000
H    -4.063000000     3.574000000     1.195000000
O     3.931000000     8.100000000     2.469000000
H     3.336000000     7.905000000     1.745000000
H     3.388000000     8.021000000     3.253000000
O    -2.494000000     7.301000000     0.935000000
H    -2.067000000     8.097000000     0.617000000
H    -1.951000000     6.587000000     0.602000000
O    -1.736000000     7.893000000    -2.290000000
H    -2.232000000     7.189000000    -1.873000000
H    -1.464000000     8.456000000    -1.566000000
O    -3.354000000     4.563000000     4.055000000
H    -2.799000000     4.325000000     3.313000000
H    -3.170000000     5.491000000     4.205000000
