215
-1472.55388
C    -4.940000000     1.452000000    -1.568000000
H    -5.096000000     0.381000000    -1.465000000
C    -3.912000000     2.005000000    -2.341000000
C    -3.734000000     3.421000000    -2.368000000
H    -2.888000000     3.780000000    -2.948000000
C    -2.942000000     0.981000000    -2.984000000
O    -3.610000000    -0.242000000    -3.355000000
H    -2.215000000     0.701000000    -2.207000000
O    -2.277000000     1.604000000    -4.136000000
C    -0.939000000     1.348000000    -4.348000000
C    -0.096000000     2.347000000    -4.011000000
H    -0.505000000     3.224000000    -3.516000000
C     1.262000000     2.149000000    -4.130000000
O     2.008000000     3.076000000    -3.483000000
C     1.765000000     0.896000000    -4.470000000
C     3.281000000     0.713000000    -4.443000000
H     3.518000000    -0.086000000    -5.148000000
C     3.741000000     0.157000000    -3.103000000
C     3.976000000    -1.239000000    -2.987000000
H     3.829000000    -1.880000000    -3.852000000
H     3.810000000     1.572000000    -4.859000000
C     0.923000000    -0.128000000    -4.867000000
H     1.307000000    -0.992000000    -5.404000000
C    -0.482000000     0.106000000    -4.787000000
C    -1.439000000    -0.972000000    -5.221000000
H    -1.124000000    -1.637000000    -6.028000000
H    -2.283000000    -0.481000000    -5.709000000
C    -1.823000000    -1.883000000    -4.039000000
C    -1.011000000    -3.036000000    -3.850000000
H    -0.211000000    -3.424000000    -4.475000000
C    -2.816000000    -1.453000000    -3.115000000
C    -3.059000000    -2.185000000    -1.984000000
H    -3.900000000    -1.921000000    -1.347000000
C    -2.300000000    -3.359000000    -1.839000000
O    -2.548000000    -4.014000000    -0.647000000
C    -1.582000000    -3.734000000     0.394000000
C    -2.272000000    -3.497000000     1.660000000
C    -1.667000000    -3.760000000     2.893000000
H    -0.705000000    -4.261000000     2.961000000
C    -3.488000000    -2.747000000     1.690000000
H    -3.946000000    -2.494000000     0.737000000
O    -0.664000000    -4.877000000     0.450000000
H    -1.074000000    -2.790000000     0.148000000
C    -1.253000000    -3.780000000    -2.705000000
C    -0.439000000    -5.011000000    -2.379000000
H    -0.025000000    -5.352000000    -3.330000000
H    -0.980000000    -5.791000000    -1.840000000
C     0.748000000    -4.614000000    -1.446000000
C     1.951000000    -4.257000000    -2.041000000
H     2.111000000    -4.207000000    -3.115000000
C     0.581000000    -4.630000000    -0.083000000
C     1.594000000    -4.268000000     0.728000000
H     1.486000000    -4.281000000     1.810000000
C     2.820000000    -3.809000000     0.206000000
O     3.797000000    -3.483000000     1.040000000
C     3.903000000    -2.033000000     1.361000000
C     4.053000000    -1.737000000     2.852000000
C     3.759000000    -2.732000000     3.796000000
H     3.526000000    -3.772000000     3.585000000
C     4.314000000    -0.452000000     3.325000000
H     4.769000000     0.255000000     2.635000000
O     4.889000000    -1.448000000     0.463000000
H     2.902000000    -1.590000000     1.252000000
C     2.989000000    -3.773000000    -1.186000000
C     4.345000000    -3.282000000    -1.673000000
H     4.607000000    -3.729000000    -2.635000000
H     5.159000000    -3.638000000    -1.038000000
C     4.329000000    -1.758000000    -1.800000000
C     4.520000000    -0.919000000    -0.723000000
C     4.438000000     0.481000000    -0.765000000
H     4.633000000     1.185000000     0.040000000
C     3.973000000     0.990000000    -1.992000000
O     3.730000000     2.330000000    -2.044000000
C     2.307000000     2.661000000    -2.113000000
H     1.635000000     1.819000000    -1.894000000
C     1.914000000     3.720000000    -1.054000000
C     1.148000000     4.872000000    -1.407000000
H     0.755000000     4.956000000    -2.418000000
C     2.297000000     3.555000000     0.281000000
H     2.904000000     2.704000000     0.578000000
C     2.018000000     4.619000000     1.235000000
O     2.311000000     4.497000000     2.606000000
C     1.302000000     5.737000000     0.854000000
H     1.161000000     6.487000000     1.629000000
C     0.840000000     5.822000000    -0.426000000
O    -0.003000000     6.910000000    -0.671000000
C    -1.145000000     7.043000000    -1.374000000
C    -2.273000000     6.248000000    -1.143000000
H    -2.240000000     5.479000000    -0.376000000
C    -1.206000000     7.999000000    -2.406000000
H    -0.320000000     8.589000000    -2.624000000
C    -2.409000000     8.227000000    -3.030000000
H    -2.528000000     9.002000000    -3.782000000
C    -3.550000000     7.370000000    -2.796000000
H    -4.440000000     7.502000000    -3.405000000
C    -3.483000000     6.395000000    -1.819000000
O    -4.579000000     5.583000000    -1.605000000
C    -4.623000000     4.195000000    -1.628000000
C    -5.637000000     3.636000000    -0.851000000
H    -6.379000000     4.206000000    -0.297000000
C    -5.828000000     2.276000000    -0.903000000
O    -6.843000000     1.770000000    -0.129000000
C    -6.785000000     0.447000000     0.282000000
C    -6.035000000     0.177000000     1.397000000
H    -5.625000000     1.009000000     1.963000000
C    -7.426000000    -0.558000000    -0.526000000
H    -7.997000000    -0.342000000    -1.425000000
C    -7.273000000    -1.843000000    -0.105000000
H    -7.687000000    -2.589000000    -0.779000000
C    -6.457000000    -2.142000000     1.012000000
H    -6.343000000    -3.150000000     1.403000000
C    -5.907000000    -1.172000000     1.845000000
O    -5.118000000    -1.479000000     2.902000000
C    -4.001000000    -2.276000000     2.925000000
C    -3.425000000    -2.610000000     4.135000000
H    -3.792000000    -2.254000000     5.094000000
C    -2.294000000    -3.357000000     4.053000000
O    -1.675000000    -3.596000000     5.274000000
C    -0.462000000    -4.218000000     5.458000000
C     0.638000000    -3.409000000     5.710000000
H     0.413000000    -2.357000000     5.866000000
C    -0.351000000    -5.613000000     5.337000000
H    -1.236000000    -6.206000000     5.116000000
C     0.941000000    -6.211000000     5.428000000
H     1.052000000    -7.289000000     5.340000000
C     2.016000000    -5.358000000     5.631000000
H     3.006000000    -5.791000000     5.749000000
C     1.926000000    -4.010000000     5.732000000
O     2.973000000    -3.227000000     6.088000000
C     3.514000000    -2.333000000     5.118000000
C     3.718000000    -0.974000000     5.524000000
H     3.582000000    -0.688000000     6.564000000
C     4.245000000    -0.104000000     4.689000000
O     4.659000000     1.095000000     5.177000000
C     4.645000000     2.327000000     4.474000000
C     5.871000000     2.863000000     4.052000000
H     6.834000000     2.513000000     4.415000000
C     5.880000000     3.933000000     3.135000000
H     6.834000000     4.426000000     2.963000000
C     4.686000000     4.418000000     2.646000000
H     4.753000000     5.159000000     1.855000000
C     3.520000000     3.896000000     3.044000000
C     3.480000000     2.845000000     3.998000000
H     2.504000000     2.427000000     4.232000000
C    -0.960000000     2.033000000     0.903000000
H    -1.193000000     3.094000000     0.883000000
C    -0.609000000     1.391000000    -0.272000000
H    -0.762000000     1.838000000    -1.251000000
C    -0.118000000     0.120000000    -0.234000000
H     0.202000000    -0.428000000    -1.112000000
C    -0.001000000    -0.509000000     1.000000000
H     0.341000000    -1.540000000     0.981000000
C    -0.270000000     0.132000000     2.166000000
H    -0.126000000    -0.390000000     3.109000000
C    -0.790000000     1.443000000     2.175000000
C    -1.123000000     2.239000000     3.441000000
O    -0.706000000     1.778000000     4.492000000
O    -1.598000000     3.348000000     3.379000000
O    -1.695000000     7.940000000     2.369000000
H    -1.881000000     7.001000000     2.362000000
H    -1.854000000     8.208000000     3.274000000
O     0.262000000     5.086000000     4.163000000
H     1.018000000     4.912000000     3.602000000
H    -0.389000000     4.437000000     3.895000000
O    -6.935000000     0.648000000     4.441000000
H    -6.082000000     0.328000000     4.734000000
H    -7.446000000     0.737000000     5.245000000
O    -2.021000000    -1.785000000     7.539000000
H    -2.561000000    -1.711000000     8.325000000
H    -2.299000000    -2.606000000     7.133000000
O     0.950000000     0.112000000     5.721000000
H     0.532000000     0.930000000     5.451000000
H     1.688000000     0.010000000     5.120000000
O    -2.566000000     8.091000000     5.156000000
H    -2.271000000     7.184000000     5.231000000
H    -3.521000000     8.036000000     5.179000000
O    -2.477000000     5.410000000     5.672000000
H    -3.237000000     4.895000000     5.402000000
H    -1.769000000     4.770000000     5.751000000
O    -2.466000000     0.393000000     5.851000000
H    -1.955000000    -0.331000000     6.212000000
H    -1.843000000     0.879000000     5.310000000
O     0.225000000    -0.159000000     8.435000000
H     0.483000000    -0.056000000     7.519000000
H    -0.243000000    -0.993000000     8.460000000
O    -4.127000000     2.498000000     5.091000000
H    -3.559000000     2.651000000     4.336000000
H    -3.729000000     1.753000000     5.543000000
O     0.629000000     7.955000000     4.842000000
H     0.344000000     7.128000000     4.452000000
H     1.511000000     8.091000000     4.495000000
O    -1.041000000     3.300000000     6.482000000
H    -0.178000000     3.345000000     6.893000000
H    -0.908000000     2.757000000     5.705000000
O    -2.559000000     5.422000000     2.207000000
H    -3.486000000     5.238000000     2.050000000
H    -2.239000000     4.654000000     2.680000000
O    -4.706000000    -0.877000000     7.142000000
H    -5.226000000    -0.295000000     7.696000000
H    -4.065000000    -0.302000000     6.725000000
O    -5.520000000     5.888000000     2.716000000
H    -6.245000000     6.062000000     2.115000000
H    -5.893000000     5.306000000     3.378000000
O    -2.231000000     2.098000000     8.691000000
H    -1.888000000     2.421000000     7.857000000
H    -1.732000000     1.299000000     8.861000000
O     1.585000000     3.431000000     7.573000000
H     1.924000000     4.252000000     7.217000000
H     2.318000000     2.819000000     7.506000000
O    -6.648000000     3.939000000     4.877000000
H    -6.305000000     3.062000000     4.707000000
H    -7.144000000     3.849000000     5.691000000
O    -0.740000000     7.642000000     7.398000000
H    -1.072000000     8.332000000     6.824000000
H    -0.999000000     6.827000000     6.968000000
