215
-1474.75162
C    -5.345000000     1.313000000    -0.427000000
H    -5.396000000     0.227000000    -0.431000000
C    -4.593000000     1.876000000    -1.432000000
C    -4.410000000     3.240000000    -1.496000000
H    -3.726000000     3.706000000    -2.201000000
C    -3.705000000     0.938000000    -2.321000000
O    -4.342000000    -0.303000000    -2.509000000
H    -2.752000000     0.904000000    -1.772000000
O    -3.392000000     1.595000000    -3.604000000
C    -2.128000000     1.419000000    -4.132000000
C    -1.157000000     2.359000000    -3.772000000
H    -1.393000000     3.244000000    -3.186000000
C     0.179000000     2.074000000    -4.074000000
O     1.070000000     3.052000000    -3.601000000
C     0.531000000     0.963000000    -4.708000000
C     2.026000000     0.671000000    -5.016000000
H     2.045000000    -0.165000000    -5.718000000
C     2.882000000     0.174000000    -3.873000000
C     3.019000000    -1.237000000    -3.706000000
H     2.487000000    -1.827000000    -4.448000000
H     2.476000000     1.548000000    -5.486000000
C    -0.425000000    -0.018000000    -5.040000000
H    -0.127000000    -0.869000000    -5.646000000
C    -1.749000000     0.155000000    -4.594000000
C    -2.674000000    -1.000000000    -4.822000000
H    -2.270000000    -1.582000000    -5.654000000
H    -3.625000000    -0.697000000    -5.265000000
C    -2.819000000    -1.843000000    -3.605000000
C    -1.962000000    -2.957000000    -3.544000000
H    -1.187000000    -3.205000000    -4.265000000
C    -3.655000000    -1.515000000    -2.565000000
C    -3.669000000    -2.250000000    -1.448000000
H    -4.416000000    -1.903000000    -0.738000000
C    -2.813000000    -3.327000000    -1.297000000
O    -2.722000000    -3.963000000    -0.069000000
C    -1.548000000    -3.680000000     0.724000000
C    -1.876000000    -3.554000000     2.195000000
C    -1.181000000    -4.107000000     3.288000000
H    -0.332000000    -4.774000000     3.159000000
C    -2.912000000    -2.697000000     2.549000000
H    -3.282000000    -2.041000000     1.765000000
O    -0.729000000    -4.853000000     0.606000000
H    -1.055000000    -2.744000000     0.425000000
C    -1.921000000    -3.724000000    -2.382000000
C    -0.919000000    -4.923000000    -2.269000000
H    -0.690000000    -5.329000000    -3.256000000
H    -1.496000000    -5.669000000    -1.718000000
C     0.350000000    -4.531000000    -1.534000000
C     1.461000000    -4.122000000    -2.228000000
H     1.559000000    -4.187000000    -3.309000000
C     0.357000000    -4.630000000    -0.123000000
C     1.548000000    -4.359000000     0.511000000
H     1.649000000    -4.472000000     1.587000000
C     2.636000000    -3.869000000    -0.173000000
O     3.613000000    -3.306000000     0.563000000
C     3.676000000    -1.830000000     0.491000000
C     3.939000000    -1.294000000     1.848000000
C     3.164000000    -1.780000000     2.938000000
H     2.320000000    -2.458000000     2.834000000
C     4.856000000    -0.263000000     2.024000000
H     5.486000000     0.124000000     1.227000000
O     4.745000000    -1.359000000    -0.412000000
H     2.742000000    -1.383000000     0.122000000
C     2.631000000    -3.753000000    -1.534000000
C     3.859000000    -3.258000000    -2.333000000
H     3.913000000    -3.774000000    -3.294000000
H     4.825000000    -3.571000000    -1.931000000
C     3.764000000    -1.763000000    -2.664000000
C     4.354000000    -0.931000000    -1.674000000
C     4.160000000     0.445000000    -1.796000000
H     4.613000000     1.093000000    -1.050000000
C     3.562000000     0.951000000    -2.932000000
O     3.252000000     2.265000000    -2.931000000
C     1.858000000     2.546000000    -2.479000000
H     1.334000000     1.643000000    -2.134000000
C     1.864000000     3.688000000    -1.428000000
C     0.723000000     4.484000000    -1.184000000
H    -0.191000000     4.243000000    -1.722000000
C     2.921000000     3.826000000    -0.540000000
H     3.680000000     3.048000000    -0.574000000
C     2.948000000     4.810000000     0.427000000
O     4.088000000     5.022000000     1.180000000
C     1.869000000     5.634000000     0.604000000
H     1.927000000     6.345000000     1.425000000
C     0.779000000     5.572000000    -0.209000000
O    -0.285000000     6.361000000     0.105000000
C    -1.367000000     6.432000000    -0.726000000
C    -2.521000000     5.819000000    -0.376000000
H    -2.550000000     5.261000000     0.557000000
C    -1.347000000     7.332000000    -1.788000000
H    -0.453000000     7.892000000    -2.052000000
C    -2.449000000     7.415000000    -2.602000000
H    -2.352000000     7.915000000    -3.562000000
C    -3.692000000     6.876000000    -2.120000000
H    -4.585000000     6.985000000    -2.730000000
C    -3.748000000     6.090000000    -1.018000000
O    -4.956000000     5.415000000    -0.701000000
C    -5.006000000     4.075000000    -0.526000000
C    -5.788000000     3.550000000     0.457000000
H    -6.291000000     4.218000000     1.152000000
C    -5.969000000     2.189000000     0.522000000
O    -6.704000000     1.709000000     1.556000000
C    -6.572000000     0.360000000     1.896000000
C    -5.572000000    -0.004000000     2.828000000
H    -5.000000000     0.729000000     3.391000000
C    -7.278000000    -0.578000000     1.177000000
H    -8.002000000    -0.365000000     0.394000000
C    -7.008000000    -1.921000000     1.437000000
H    -7.483000000    -2.636000000     0.770000000
C    -6.094000000    -2.342000000     2.425000000
H    -6.020000000    -3.393000000     2.692000000
C    -5.328000000    -1.363000000     3.126000000
O    -4.462000000    -1.727000000     4.083000000
C    -3.378000000    -2.523000000     3.850000000
C    -2.730000000    -3.215000000     4.881000000
H    -3.020000000    -3.039000000     5.913000000
C    -1.584000000    -3.950000000     4.617000000
O    -0.870000000    -4.528000000     5.645000000
C     0.510000000    -4.434000000     5.615000000
C     1.045000000    -3.184000000     5.435000000
H     0.439000000    -2.283000000     5.480000000
C     1.334000000    -5.573000000     5.670000000
H     0.993000000    -6.593000000     5.827000000
C     2.729000000    -5.362000000     5.659000000
H     3.406000000    -6.191000000     5.847000000
C     3.271000000    -4.085000000     5.593000000
H     4.333000000    -3.893000000     5.718000000
C     2.388000000    -3.016000000     5.334000000
O     2.866000000    -1.761000000     5.260000000
C     3.569000000    -1.342000000     4.222000000
C     4.460000000    -0.325000000     4.419000000
H     4.612000000     0.035000000     5.433000000
C     5.138000000     0.230000000     3.316000000
O     5.916000000     1.295000000     3.529000000
C     6.068000000     2.354000000     2.671000000
C     7.300000000     2.561000000     2.003000000
H     8.097000000     1.903000000     2.340000000
C     7.491000000     3.637000000     1.166000000
H     8.457000000     3.706000000     0.673000000
C     6.380000000     4.426000000     0.851000000
H     6.415000000     5.206000000     0.094000000
C     5.175000000     4.168000000     1.419000000
C     4.969000000     3.122000000     2.316000000
H     3.986000000     2.849000000     2.691000000
C    -1.563000000     1.865000000     1.800000000
H    -2.283000000     2.582000000     2.184000000
C    -1.952000000     0.750000000     1.107000000
H    -2.990000000     0.437000000     1.017000000
C    -1.054000000    -0.020000000     0.401000000
H    -1.380000000    -0.834000000    -0.194000000
C     0.295000000     0.207000000     0.557000000
H     1.047000000    -0.325000000    -0.021000000
C     0.734000000     1.290000000     1.261000000
H     1.774000000     1.600000000     1.212000000
C    -0.191000000     2.157000000     1.904000000
C     0.242000000     3.370000000     2.632000000
O     1.433000000     3.464000000     2.987000000
O    -0.582000000     4.245000000     2.876000000
O     0.062000000     9.411000000     3.908000000
H     0.164000000     8.490000000     3.666000000
H    -0.851000000     9.486000000     4.186000000
O     3.388000000     4.756000000     4.374000000
H     3.766000000     4.633000000     3.503000000
H     2.509000000     4.381000000     4.309000000
O    -3.303000000     8.455000000     1.493000000
H    -3.729000000     7.685000000     1.114000000
H    -2.761000000     8.104000000     2.200000000
O     3.917000000     6.851000000    -2.014000000
H     4.446000000     6.183000000    -2.450000000
H     3.432000000     6.371000000    -1.342000000
O     2.023000000     1.745000000     4.754000000
H     1.800000000     2.317000000     4.019000000
H     1.773000000     0.869000000     4.459000000
O    -2.627000000     8.116000000     4.785000000
H    -3.546000000     8.236000000     5.024000000
H    -2.617000000     7.304000000     4.277000000
O     5.271000000     5.158000000     6.165000000
H     5.378000000     4.279000000     6.528000000
H     4.670000000     5.042000000     5.429000000
O    -0.437000000    -0.419000000     3.870000000
H    -0.822000000     0.028000000     3.117000000
H    -1.065000000    -0.281000000     4.578000000
O     4.343000000     2.483000000     6.585000000
H     3.665000000     2.502000000     7.261000000
H     3.877000000     2.235000000     5.787000000
O    -0.767000000     0.812000000     7.825000000
H    -1.438000000     0.689000000     8.497000000
H    -1.182000000     0.516000000     7.015000000
O    -3.186000000     2.897000000     5.154000000
H    -2.538000000     3.595000000     5.056000000
H    -3.987000000     3.261000000     4.777000000
O    -1.060000000     4.645000000     5.577000000
H    -1.033000000     4.846000000     4.641000000
H    -0.221000000     4.220000000     5.755000000
O     0.431000000     6.570000000     3.620000000
H     1.075000000     5.991000000     4.027000000
H    -0.136000000     5.983000000     3.120000000
O    -2.529000000     6.056000000     3.029000000
H    -3.288000000     5.509000000     3.231000000
H    -1.873000000     5.441000000     2.700000000
O    -2.381000000     0.224000000     5.865000000
H    -2.561000000     1.017000000     5.359000000
H    -3.243000000    -0.073000000     6.159000000
O    -2.778000000     4.719000000     7.977000000
H    -2.059000000     4.733000000     7.345000000
H    -2.353000000     4.551000000     8.819000000
O     0.618000000     2.857000000     6.773000000
H     1.281000000     2.371000000     6.283000000
H    -0.058000000     2.209000000     6.969000000
O    -5.530000000     4.573000000     3.421000000
H    -6.167000000     5.285000000     3.481000000
H    -5.993000000     3.876000000     2.955000000
O    -0.713000000     7.279000000     6.674000000
H    -0.452000000     6.449000000     6.277000000
H    -1.426000000     7.596000000     6.120000000
