215
-1460.88374
C    -5.392000000    -0.407000000    -1.032000000
H    -5.266000000    -1.482000000    -0.937000000
C    -4.582000000     0.207000000    -2.027000000
C    -4.626000000     1.617000000    -2.045000000
H    -3.918000000     2.292000000    -2.521000000
C    -3.488000000    -0.552000000    -2.749000000
O    -3.774000000    -1.948000000    -2.962000000
H    -2.559000000    -0.555000000    -2.161000000
O    -3.144000000    -0.040000000    -4.087000000
C    -1.816000000     0.090000000    -4.441000000
C    -1.246000000     1.352000000    -4.261000000
H    -1.842000000     2.204000000    -3.942000000
C     0.122000000     1.465000000    -4.461000000
O     0.717000000     2.630000000    -4.060000000
C     0.982000000     0.399000000    -4.796000000
C     2.507000000     0.414000000    -4.977000000
H     2.839000000    -0.340000000    -5.693000000
C     3.229000000     0.170000000    -3.683000000
C     3.790000000    -1.066000000    -3.333000000
H     3.679000000    -1.915000000    -4.003000000
H     2.971000000     1.304000000    -5.407000000
C     0.354000000    -0.826000000    -4.972000000
H     0.947000000    -1.696000000    -5.241000000
C    -1.028000000    -1.005000000    -4.768000000
C    -1.645000000    -2.459000000    -4.837000000
H    -1.125000000    -3.106000000    -5.547000000
H    -2.652000000    -2.315000000    -5.234000000
C    -1.659000000    -3.044000000    -3.458000000
C    -0.605000000    -3.893000000    -3.111000000
H     0.220000000    -4.086000000    -3.791000000
C    -2.703000000    -2.746000000    -2.557000000
C    -2.755000000    -3.208000000    -1.285000000
H    -3.417000000    -2.873000000    -0.491000000
C    -1.637000000    -4.010000000    -0.861000000
O    -1.649000000    -4.270000000     0.456000000
C    -0.743000000    -3.624000000     1.362000000
C    -1.461000000    -3.243000000     2.728000000
C    -0.742000000    -2.857000000     3.865000000
H     0.345000000    -2.845000000     3.866000000
C    -2.862000000    -3.268000000     2.798000000
H    -3.551000000    -3.439000000     1.975000000
O     0.413000000    -4.524000000     1.652000000
H    -0.384000000    -2.711000000     0.864000000
C    -0.636000000    -4.424000000    -1.776000000
C     0.492000000    -5.331000000    -1.322000000
H     1.005000000    -5.787000000    -2.170000000
H     0.187000000    -6.103000000    -0.613000000
C     1.465000000    -4.460000000    -0.563000000
C     2.457000000    -3.916000000    -1.333000000
H     2.425000000    -3.984000000    -2.417000000
C     1.536000000    -4.303000000     0.870000000
C     2.593000000    -3.599000000     1.453000000
H     2.615000000    -3.466000000     2.532000000
C     3.602000000    -3.045000000     0.710000000
O     4.473000000    -2.144000000     1.304000000
C     4.185000000    -0.788000000     0.996000000
C     4.346000000     0.053000000     2.245000000
C     3.777000000    -0.393000000     3.478000000
H     3.316000000    -1.376000000     3.530000000
C     4.945000000     1.299000000     2.259000000
H     5.434000000     1.656000000     1.356000000
O     5.095000000    -0.311000000    -0.030000000
H     3.118000000    -0.677000000     0.756000000
C     3.481000000    -3.192000000    -0.685000000
C     4.619000000    -2.727000000    -1.601000000
H     4.778000000    -3.426000000    -2.425000000
H     5.584000000    -2.708000000    -1.090000000
C     4.379000000    -1.327000000    -2.132000000
C     4.620000000    -0.236000000    -1.257000000
C     4.083000000     1.032000000    -1.563000000
H     4.108000000     1.836000000    -0.831000000
C     3.338000000     1.202000000    -2.755000000
O     2.804000000     2.450000000    -3.059000000
C     1.411000000     2.563000000    -2.816000000
H     1.015000000     1.695000000    -2.269000000
C     1.246000000     3.874000000    -1.987000000
C    -0.008000000     4.465000000    -1.993000000
H    -0.826000000     4.044000000    -2.572000000
C     2.226000000     4.486000000    -1.269000000
H     3.212000000     4.035000000    -1.189000000
C     1.982000000     5.675000000    -0.486000000
O     2.813000000     6.183000000     0.448000000
C     0.764000000     6.311000000    -0.644000000
H     0.607000000     7.287000000    -0.192000000
C    -0.218000000     5.720000000    -1.455000000
O    -1.446000000     6.306000000    -1.508000000
C    -2.583000000     5.778000000    -2.106000000
C    -3.474000000     4.908000000    -1.415000000
H    -3.205000000     4.542000000    -0.427000000
C    -2.948000000     6.230000000    -3.356000000
H    -2.213000000     6.898000000    -3.797000000
C    -4.138000000     5.831000000    -3.919000000
H    -4.363000000     6.127000000    -4.940000000
C    -5.010000000     4.921000000    -3.285000000
H    -5.955000000     4.685000000    -3.769000000
C    -4.651000000     4.483000000    -1.984000000
O    -5.565000000     3.703000000    -1.252000000
C    -5.527000000     2.325000000    -1.208000000
C    -6.305000000     1.688000000    -0.293000000
H    -7.036000000     2.304000000     0.225000000
C    -6.172000000     0.314000000    -0.149000000
O    -7.089000000    -0.272000000     0.680000000
C    -6.880000000    -1.494000000     1.287000000
C    -5.873000000    -1.667000000     2.289000000
H    -5.150000000    -0.895000000     2.540000000
C    -7.746000000    -2.566000000     0.953000000
H    -8.496000000    -2.405000000     0.183000000
C    -7.575000000    -3.819000000     1.597000000
H    -8.195000000    -4.694000000     1.424000000
C    -6.650000000    -3.946000000     2.628000000
H    -6.590000000    -4.932000000     3.081000000
C    -5.818000000    -2.868000000     2.956000000
O    -4.897000000    -2.920000000     4.024000000
C    -3.546000000    -2.928000000     3.968000000
C    -2.799000000    -2.611000000     5.099000000
H    -3.378000000    -2.367000000     5.986000000
C    -1.393000000    -2.596000000     5.047000000
O    -0.799000000    -2.268000000     6.252000000
C     0.558000000    -2.310000000     6.436000000
C     1.256000000    -1.241000000     5.947000000
H     0.681000000    -0.488000000     5.414000000
C     1.124000000    -3.367000000     7.158000000
H     0.458000000    -4.184000000     7.423000000
C     2.422000000    -3.196000000     7.612000000
H     2.866000000    -3.800000000     8.400000000
C     3.212000000    -2.129000000     7.081000000
H     4.243000000    -1.932000000     7.362000000
C     2.625000000    -1.138000000     6.184000000
O     3.346000000     0.007000000     5.825000000
C     3.902000000     0.335000000     4.655000000
C     4.460000000     1.592000000     4.618000000
H     4.451000000     2.205000000     5.516000000
C     5.003000000     2.054000000     3.413000000
O     5.450000000     3.395000000     3.361000000
C     5.378000000     4.277000000     2.297000000
C     6.444000000     4.417000000     1.366000000
H     7.406000000     3.952000000     1.568000000
C     6.319000000     5.248000000     0.233000000
H     7.202000000     5.492000000    -0.353000000
C     5.055000000     5.800000000    -0.025000000
H     4.992000000     6.399000000    -0.929000000
C     3.968000000     5.589000000     0.812000000
C     4.090000000     4.702000000     1.891000000
H     3.293000000     4.650000000     2.628000000
C    -2.531000000     0.362000000     1.324000000
H    -3.321000000    -0.348000000     1.556000000
C    -1.431000000    -0.109000000     0.635000000
H    -1.445000000    -1.129000000     0.259000000
C    -0.462000000     0.820000000     0.374000000
H     0.405000000     0.580000000    -0.320000000
C    -0.546000000     2.125000000     0.796000000
H     0.328000000     2.760000000     0.679000000
C    -1.637000000     2.577000000     1.544000000
H    -1.595000000     3.557000000     2.012000000
C    -2.648000000     1.696000000     1.764000000
C    -3.802000000     2.125000000     2.656000000
O    -3.982000000     3.318000000     2.962000000
O    -4.318000000     1.236000000     3.276000000
O    -7.519000000    -0.533000000     5.987000000
H    -7.240000000     0.090000000     5.316000000
H    -8.069000000    -1.160000000     5.517000000
O    -3.612000000     5.532000000     1.799000000
H    -2.761000000     5.750000000     2.179000000
H    -3.804000000     4.655000000     2.129000000
O    -9.579000000     1.770000000     5.382000000
H    -9.908000000     1.215000000     6.089000000
H    -8.790000000     1.324000000     5.075000000
O     0.662000000     2.131000000     3.633000000
H     0.311000000     2.236000000     2.749000000
H     0.102000000     1.466000000     4.035000000
O    -6.757000000     4.181000000     2.273000000
H    -6.215000000     4.845000000     2.700000000
H    -6.487000000     4.207000000     1.355000000
O    -1.604000000     3.678000000     6.269000000
H    -2.425000000     3.807000000     5.796000000
H    -1.041000000     3.214000000     5.650000000
O    -1.080000000     6.304000000     2.684000000
H    -1.105000000     6.391000000     3.636000000
H    -0.165000000     6.107000000     2.485000000
O    -9.763000000     1.047000000     2.023000000
H    -9.908000000     0.992000000     1.078000000
H    -8.832000000     0.853000000     2.134000000
O    -7.170000000     3.850000000     6.008000000
H    -7.879000000     3.366000000     5.584000000
H    -6.449000000     3.818000000     5.380000000
O    -1.518000000     0.720000000     4.414000000
H    -1.997000000     0.337000000     3.680000000
H    -2.199000000     1.000000000     5.025000000
O    -7.039000000     1.351000000     4.053000000
H    -7.460000000     1.933000000     3.420000000
H    -6.176000000     1.174000000     3.679000000
O    -4.305000000     4.517000000     5.173000000
H    -3.998000000     4.137000000     4.349000000
H    -4.008000000     5.426000000     5.143000000
O    -9.370000000     4.687000000     3.173000000
H    -9.364000000     5.594000000     3.480000000
H    -8.472000000     4.527000000     2.882000000
O    -3.291000000    -0.046000000     8.041000000
H    -3.899000000    -0.743000000     8.288000000
H    -3.821000000     0.560000000     7.523000000
O    -0.673000000     6.530000000     5.834000000
H    -1.259000000     5.774000000     5.813000000
H    -0.511000000     6.682000000     6.765000000
O    -4.145000000     1.900000000     6.232000000
H    -4.204000000     1.416000000     5.408000000
H    -4.557000000     2.743000000     6.044000000
O    -4.933000000     5.167000000     7.960000000
H    -4.179000000     4.728000000     8.353000000
H    -4.885000000     4.941000000     7.031000000
O    -2.858000000     3.069000000     8.628000000
H    -2.015000000     2.662000000     8.828000000
H    -3.162000000     2.616000000     7.841000000
O    -3.382000000     7.246000000     4.836000000
H    -2.951000000     7.706000000     5.555000000
H    -3.340000000     7.857000000     4.100000000
