215
-1452.46315
C    -4.108000000     0.742000000    -0.401000000
H    -3.905000000    -0.276000000    -0.079000000
C    -3.998000000     1.104000000    -1.734000000
C    -4.193000000     2.457000000    -2.174000000
H    -4.120000000     2.796000000    -3.204000000
C    -3.289000000     0.062000000    -2.544000000
O    -3.940000000    -1.149000000    -2.530000000
H    -2.339000000    -0.087000000    -2.011000000
O    -3.049000000     0.597000000    -3.875000000
C    -1.844000000     0.416000000    -4.336000000
C    -1.107000000     1.588000000    -4.321000000
H    -1.483000000     2.535000000    -3.942000000
C     0.255000000     1.603000000    -4.571000000
O     0.997000000     2.734000000    -4.239000000
C     0.858000000     0.396000000    -4.937000000
C     2.384000000     0.212000000    -5.097000000
H     2.567000000    -0.546000000    -5.861000000
C     3.032000000    -0.062000000    -3.716000000
C     3.405000000    -1.416000000    -3.433000000
H     3.210000000    -2.182000000    -4.180000000
H     2.803000000     1.163000000    -5.433000000
C     0.130000000    -0.790000000    -5.089000000
H     0.681000000    -1.716000000    -5.234000000
C    -1.225000000    -0.812000000    -4.680000000
C    -2.001000000    -2.055000000    -4.742000000
H    -1.409000000    -2.730000000    -5.363000000
H    -2.939000000    -1.823000000    -5.252000000
C    -2.216000000    -2.722000000    -3.422000000
C    -1.466000000    -3.923000000    -3.099000000
H    -0.854000000    -4.347000000    -3.891000000
C    -3.152000000    -2.259000000    -2.425000000
C    -3.080000000    -2.871000000    -1.183000000
H    -3.818000000    -2.512000000    -0.471000000
C    -2.180000000    -3.835000000    -0.804000000
O    -2.265000000    -4.314000000     0.479000000
C    -1.242000000    -3.957000000     1.507000000
C    -1.860000000    -3.667000000     2.877000000
C    -0.989000000    -3.633000000     3.992000000
H     0.035000000    -3.878000000     3.721000000
C    -3.164000000    -3.334000000     3.034000000
H    -3.864000000    -3.151000000     2.223000000
O    -0.266000000    -5.035000000     1.472000000
H    -0.747000000    -3.027000000     1.191000000
C    -1.463000000    -4.437000000    -1.795000000
C    -0.502000000    -5.491000000    -1.469000000
H    -0.238000000    -6.151000000    -2.298000000
H    -0.997000000    -6.148000000    -0.750000000
C     0.776000000    -4.912000000    -0.778000000
C     1.785000000    -4.442000000    -1.586000000
H     1.743000000    -4.556000000    -2.667000000
C     0.853000000    -4.808000000     0.661000000
C     1.953000000    -4.228000000     1.261000000
H     2.016000000    -4.084000000     2.337000000
C     2.940000000    -3.689000000     0.404000000
O     3.884000000    -2.942000000     1.018000000
C     3.775000000    -1.541000000     0.917000000
C     3.862000000    -0.896000000     2.268000000
C     3.678000000    -1.593000000     3.522000000
H     3.631000000    -2.679000000     3.547000000
C     3.900000000     0.470000000     2.226000000
H     4.163000000     1.036000000     1.336000000
O     4.735000000    -1.009000000     0.012000000
H     2.790000000    -1.240000000     0.531000000
C     2.880000000    -3.882000000    -0.983000000
C     4.045000000    -3.316000000    -1.942000000
H     4.101000000    -3.896000000    -2.866000000
H     4.998000000    -3.450000000    -1.427000000
C     3.905000000    -1.778000000    -2.188000000
C     4.225000000    -0.733000000    -1.288000000
C     3.995000000     0.594000000    -1.563000000
H     4.418000000     1.307000000    -0.859000000
C     3.319000000     0.935000000    -2.726000000
O     3.065000000     2.268000000    -2.906000000
C     1.641000000     2.731000000    -2.902000000
H     1.001000000     2.124000000    -2.246000000
C     1.482000000     4.096000000    -2.270000000
C     0.345000000     4.869000000    -2.487000000
H    -0.399000000     4.579000000    -3.224000000
C     2.422000000     4.562000000    -1.272000000
H     3.285000000     3.979000000    -0.961000000
C     2.337000000     5.797000000    -0.664000000
O     3.351000000     6.274000000     0.210000000
C     1.266000000     6.643000000    -1.075000000
H     1.157000000     7.666000000    -0.724000000
C     0.243000000     6.134000000    -1.868000000
O    -0.634000000     7.031000000    -2.421000000
C    -1.926000000     6.655000000    -2.851000000
C    -2.666000000     5.791000000    -1.996000000
H    -2.266000000     5.389000000    -1.068000000
C    -2.495000000     7.107000000    -4.087000000
H    -1.845000000     7.676000000    -4.747000000
C    -3.725000000     6.711000000    -4.516000000
H    -4.167000000     7.097000000    -5.431000000
C    -4.422000000     5.779000000    -3.632000000
H    -5.390000000     5.458000000    -4.009000000
C    -3.906000000     5.405000000    -2.403000000
O    -4.768000000     4.619000000    -1.615000000
C    -4.510000000     3.378000000    -1.240000000
C    -4.796000000     3.075000000     0.030000000
H    -5.118000000     3.784000000     0.788000000
C    -4.542000000     1.725000000     0.483000000
O    -4.708000000     1.417000000     1.831000000
C    -5.403000000     0.284000000     2.255000000
C    -4.745000000    -0.504000000     3.199000000
H    -3.765000000    -0.221000000     3.573000000
C    -6.576000000    -0.052000000     1.657000000
H    -6.822000000     0.529000000     0.773000000
C    -7.299000000    -1.134000000     2.158000000
H    -8.259000000    -1.401000000     1.723000000
C    -6.742000000    -1.908000000     3.260000000
H    -7.218000000    -2.841000000     3.547000000
C    -5.424000000    -1.648000000     3.643000000
O    -4.883000000    -2.525000000     4.518000000
C    -3.604000000    -3.020000000     4.321000000
C    -2.748000000    -3.184000000     5.460000000
H    -3.145000000    -2.936000000     6.441000000
C    -1.443000000    -3.537000000     5.300000000
O    -0.679000000    -3.669000000     6.389000000
C     0.681000000    -3.653000000     6.274000000
C     1.334000000    -2.484000000     6.062000000
H     0.725000000    -1.589000000     5.964000000
C     1.340000000    -4.870000000     6.448000000
H     0.767000000    -5.789000000     6.542000000
C     2.767000000    -4.909000000     6.562000000
H     3.226000000    -5.841000000     6.883000000
C     3.478000000    -3.710000000     6.302000000
H     4.563000000    -3.774000000     6.319000000
C     2.736000000    -2.494000000     6.045000000
O     3.368000000    -1.324000000     5.896000000
C     3.639000000    -0.743000000     4.653000000
C     3.799000000     0.643000000     4.573000000
H     3.532000000     1.203000000     5.465000000
C     3.835000000     1.310000000     3.392000000
O     3.872000000     2.696000000     3.404000000
C     4.454000000     3.476000000     2.417000000
C     5.841000000     3.499000000     2.162000000
H     6.502000000     2.856000000     2.738000000
C     6.350000000     4.521000000     1.309000000
H     7.427000000     4.546000000     1.170000000
C     5.490000000     5.417000000     0.664000000
H     5.902000000     6.227000000     0.067000000
C     4.153000000     5.366000000     0.890000000
C     3.622000000     4.379000000     1.783000000
H     2.567000000     4.237000000     2.004000000
C    -0.548000000     0.554000000     3.031000000
H    -0.489000000     0.194000000     4.055000000
C    -0.154000000    -0.434000000     2.087000000
H     0.165000000    -1.439000000     2.352000000
C    -0.049000000    -0.063000000     0.741000000
H     0.111000000    -0.746000000    -0.035000000
C    -0.378000000     1.193000000     0.405000000
H    -0.356000000     1.570000000    -0.614000000
C    -0.766000000     2.185000000     1.274000000
H    -0.966000000     3.157000000     0.830000000
C    -0.853000000     1.852000000     2.622000000
C    -1.074000000     2.815000000     3.654000000
O    -1.271000000     3.972000000     3.425000000
O    -1.138000000     2.447000000     4.835000000
O    -1.194000000     8.651000000     2.075000000
H    -1.512000000     7.769000000     1.885000000
H    -0.263000000     8.534000000     2.266000000
O    -5.392000000     1.541000000     6.726000000
H    -4.523000000     1.150000000     6.637000000
H    -5.472000000     2.121000000     5.968000000
O     1.162000000     3.539000000     5.554000000
H     1.726000000     3.380000000     4.797000000
H     0.303000000     3.211000000     5.287000000
O    -5.188000000     2.784000000     4.278000000
H    -6.025000000     3.059000000     3.903000000
H    -4.791000000     2.236000000     3.601000000
O    -2.353000000     5.981000000     1.832000000
H    -3.262000000     5.951000000     2.129000000
H    -1.968000000     5.166000000     2.155000000
O     2.389000000     2.452000000     7.940000000
H     1.915000000     1.631000000     8.072000000
H     1.978000000     2.844000000     7.168000000
O    -1.020000000     2.736000000     7.464000000
H    -1.794000000     2.782000000     8.026000000
H    -1.370000000     2.763000000     6.573000000
O     1.399000000     7.788000000     2.487000000
H     2.089000000     7.325000000     2.014000000
H     1.144000000     7.188000000     3.188000000
O    -1.625000000     7.406000000     7.447000000
H    -1.084000000     6.618000000     7.411000000
H    -1.086000000     8.086000000     7.043000000
O    -3.435000000     5.292000000     7.375000000
H    -2.937000000     6.077000000     7.604000000
H    -3.253000000     5.155000000     6.446000000
O    -1.979000000     0.006000000     9.239000000
H    -2.664000000    -0.563000000     9.589000000
H    -2.444000000     0.791000000     8.950000000
O    -2.832000000     0.744000000     5.779000000
H    -2.152000000     0.117000000     6.026000000
H    -2.359000000     1.445000000     5.331000000
O    -3.359000000     4.923000000     4.612000000
H    -2.604000000     4.419000000     4.310000000
H    -4.071000000     4.284000000     4.657000000
O     0.330000000     5.851000000     6.868000000
H     1.133000000     6.343000000     6.697000000
H     0.555000000     4.944000000     6.660000000
O    -3.785000000     7.536000000     4.671000000
H    -3.567000000     6.612000000     4.553000000
H    -4.237000000     7.570000000     5.514000000
O     0.349000000     0.346000000     7.677000000
H    -0.227000000    -0.155000000     8.255000000
H    -0.200000000     1.058000000     7.350000000
O    -0.287000000     4.162000000     9.832000000
H    -1.149000000     4.435000000     9.517000000
H    -0.026000000     3.460000000     9.236000000
O    -3.123000000     3.049000000     9.109000000
H    -3.353000000     3.482000000     9.931000000
H    -3.404000000     3.661000000     8.429000000
O    -0.163000000     6.265000000     4.057000000
H    -0.584000000     5.408000000     3.992000000
H    -0.116000000     6.438000000     4.998000000
