215
-1464.89055
C    -2.545000000    -0.048000000    -4.221000000
H    -2.982000000    -0.979000000    -3.868000000
C    -1.116000000    -0.082000000    -4.347000000
C    -0.431000000     1.094000000    -4.760000000
H     0.655000000     1.066000000    -4.808000000
C    -0.349000000    -1.350000000    -3.952000000
O    -1.063000000    -2.610000000    -4.085000000
H    -0.115000000    -1.212000000    -2.886000000
O     0.921000000    -1.544000000    -4.600000000
C     2.037000000    -1.744000000    -3.801000000
C     2.885000000    -0.656000000    -3.565000000
H     2.755000000     0.254000000    -4.145000000
C     3.885000000    -0.675000000    -2.581000000
O     4.501000000     0.503000000    -2.199000000
C     4.087000000    -1.942000000    -1.929000000
C     5.132000000    -2.057000000    -0.822000000
H     5.623000000    -3.031000000    -0.801000000
C     4.513000000    -1.635000000     0.487000000
C     4.064000000    -2.596000000     1.352000000
H     4.054000000    -3.653000000     1.096000000
H     5.976000000    -1.390000000    -1.009000000
C     3.357000000    -3.041000000    -2.255000000
H     3.548000000    -3.983000000    -1.747000000
C     2.271000000    -2.965000000    -3.119000000
C     1.399000000    -4.137000000    -3.414000000
H     2.075000000    -4.990000000    -3.328000000
H     1.018000000    -4.038000000    -4.432000000
C     0.099000000    -4.185000000    -2.598000000
C     0.137000000    -4.918000000    -1.414000000
H     1.003000000    -5.484000000    -1.079000000
C    -1.026000000    -3.466000000    -2.957000000
C    -2.117000000    -3.450000000    -2.106000000
H    -3.015000000    -2.867000000    -2.297000000
C    -2.141000000    -4.280000000    -0.982000000
O    -3.284000000    -4.117000000    -0.211000000
C    -3.091000000    -3.099000000     0.771000000
C    -4.409000000    -2.307000000     0.941000000
C    -4.678000000    -1.754000000     2.173000000
H    -4.139000000    -1.814000000     3.116000000
C    -5.239000000    -2.061000000    -0.167000000
H    -4.966000000    -2.441000000    -1.148000000
O    -2.783000000    -3.783000000     2.028000000
H    -2.236000000    -2.451000000     0.528000000
C    -1.027000000    -4.958000000    -0.593000000
C    -1.005000000    -5.595000000     0.788000000
H    -0.322000000    -6.445000000     0.750000000
H    -1.963000000    -6.045000000     1.060000000
C    -0.563000000    -4.521000000     1.780000000
C     0.786000000    -4.391000000     2.095000000
H     1.549000000    -4.932000000     1.543000000
C    -1.469000000    -3.783000000     2.434000000
C    -1.047000000    -2.760000000     3.358000000
H    -1.734000000    -2.002000000     3.726000000
C     0.289000000    -2.682000000     3.694000000
O     0.742000000    -1.614000000     4.475000000
C     1.386000000    -0.421000000     3.907000000
C     0.663000000     0.885000000     4.442000000
C    -0.677000000     0.947000000     4.782000000
H    -1.322000000     0.097000000     4.572000000
C     1.472000000     2.025000000     4.627000000
H     2.530000000     2.008000000     4.379000000
O     2.780000000    -0.436000000     4.079000000
H     1.205000000    -0.356000000     2.824000000
C     1.242000000    -3.496000000     3.042000000
C     2.747000000    -3.348000000     3.328000000
H     3.200000000    -4.333000000     3.196000000
H     2.836000000    -3.200000000     4.407000000
C     3.476000000    -2.214000000     2.569000000
C     3.548000000    -0.935000000     3.035000000
C     4.057000000     0.068000000     2.228000000
H     4.146000000     1.104000000     2.544000000
C     4.528000000    -0.286000000     0.917000000
O     5.007000000     0.704000000     0.080000000
C     4.115000000     1.130000000    -0.939000000
H     3.099000000     0.806000000    -0.670000000
C     4.126000000     2.675000000    -1.078000000
C     3.841000000     3.252000000    -2.311000000
H     3.582000000     2.726000000    -3.226000000
C     4.269000000     3.456000000     0.063000000
H     4.438000000     2.957000000     1.014000000
C     4.100000000     4.829000000     0.052000000
O     4.023000000     5.637000000     1.163000000
C     3.801000000     5.520000000    -1.192000000
H     3.819000000     6.602000000    -1.288000000
C     3.661000000     4.701000000    -2.304000000
O     3.495000000     5.337000000    -3.553000000
C     2.808000000     4.760000000    -4.554000000
C     1.443000000     4.275000000    -4.471000000
H     0.786000000     4.452000000    -3.623000000
C     3.530000000     4.594000000    -5.728000000
H     4.548000000     4.972000000    -5.759000000
C     2.952000000     4.006000000    -6.806000000
H     3.476000000     3.854000000    -7.746000000
C     1.668000000     3.544000000    -6.753000000
H     1.170000000     3.113000000    -7.618000000
C     0.857000000     3.660000000    -5.576000000
O    -0.474000000     3.347000000    -5.617000000
C    -1.107000000     2.270000000    -4.993000000
C    -2.507000000     2.297000000    -4.850000000
H    -2.972000000     3.244000000    -5.114000000
C    -3.229000000     1.153000000    -4.479000000
O    -4.547000000     1.190000000    -4.290000000
C    -5.420000000     0.115000000    -4.018000000
C    -5.950000000    -0.054000000    -2.709000000
H    -5.710000000     0.700000000    -1.964000000
C    -5.696000000    -0.868000000    -4.995000000
H    -5.399000000    -0.655000000    -6.019000000
C    -6.515000000    -1.940000000    -4.640000000
H    -6.727000000    -2.724000000    -5.362000000
C    -7.153000000    -2.093000000    -3.372000000
H    -7.668000000    -3.026000000    -3.158000000
C    -6.863000000    -1.095000000    -2.362000000
O    -7.302000000    -1.239000000    -1.064000000
C    -6.443000000    -1.442000000     0.035000000
C    -6.719000000    -0.867000000     1.187000000
H    -7.728000000    -0.474000000     1.280000000
C    -5.819000000    -0.934000000     2.238000000
O    -6.195000000    -0.568000000     3.464000000
C    -5.310000000    -0.105000000     4.461000000
C    -4.294000000     0.812000000     4.262000000
H    -3.971000000     1.129000000     3.273000000
C    -5.557000000    -0.516000000     5.732000000
H    -6.370000000    -1.202000000     5.957000000
C    -4.866000000    -0.042000000     6.824000000
H    -5.225000000    -0.338000000     7.806000000
C    -3.932000000     0.913000000     6.663000000
H    -3.475000000     1.418000000     7.510000000
C    -3.594000000     1.340000000     5.387000000
O    -2.659000000     2.281000000     5.158000000
C    -1.279000000     2.152000000     5.153000000
C    -0.459000000     3.261000000     5.327000000
H    -0.946000000     4.172000000     5.665000000
C     0.919000000     3.214000000     5.070000000
O     1.747000000     4.299000000     5.162000000
C     2.867000000     4.552000000     4.448000000
C     4.067000000     4.690000000     5.147000000
H     4.092000000     4.562000000     6.227000000
C     5.264000000     5.185000000     4.545000000
H     6.236000000     5.301000000     5.016000000
C     5.172000000     5.568000000     3.150000000
H     6.040000000     6.035000000     2.690000000
C     3.998000000     5.287000000     2.458000000
C     2.840000000     4.914000000     3.080000000
H     1.913000000     4.748000000     2.539000000
C    -2.145000000     0.626000000     0.514000000
H    -2.974000000     0.488000000     1.204000000
C    -0.998000000    -0.137000000     0.755000000
H    -0.998000000    -0.661000000     1.708000000
C     0.144000000    -0.055000000    -0.023000000
H     1.017000000    -0.617000000     0.326000000
C     0.060000000     0.674000000    -1.186000000
H     0.883000000     0.731000000    -1.893000000
C    -1.074000000     1.419000000    -1.465000000
H    -1.045000000     2.085000000    -2.324000000
C    -2.142000000     1.516000000    -0.585000000
C    -3.361000000     2.397000000    -0.805000000
O    -3.278000000     3.175000000    -1.760000000
O    -4.195000000     2.497000000     0.096000000
O   -10.330000000     2.371000000    -2.188000000
H   -10.185000000     1.470000000    -2.476000000
H    -9.606000000     2.550000000    -1.589000000
O    -7.250000000     3.404000000     4.495000000
H    -6.548000000     3.234000000     3.867000000
H    -6.801000000     3.515000000     5.333000000
O    -6.589000000     3.180000000    -4.604000000
H    -5.759000000     2.890000000    -4.983000000
H    -6.361000000     3.466000000    -3.719000000
O    -8.612000000     3.134000000    -0.265000000
H    -9.000000000     3.956000000     0.035000000
H    -8.598000000     2.578000000     0.513000000
O    -5.025000000     6.012000000     1.407000000
H    -4.726000000     5.926000000     0.502000000
H    -5.792000000     6.582000000     1.353000000
O    -2.581000000     9.037000000    -0.053000000
H    -1.714000000     8.663000000     0.106000000
H    -2.569000000     9.284000000    -0.978000000
O    -4.806000000     6.411000000    -1.282000000
H    -5.554000000     5.814000000    -1.299000000
H    -5.183000000     7.272000000    -1.462000000
O    -0.009000000     7.184000000     2.427000000
H    -0.249000000     6.258000000     2.385000000
H    -0.728000000     7.596000000     2.906000000
O    -4.607000000     5.857000000    -6.462000000
H    -4.426000000     5.503000000    -5.591000000
H    -3.787000000     6.275000000    -6.725000000
O    -1.398000000     4.562000000     2.171000000
H    -2.179000000     4.190000000     2.580000000
H    -1.600000000     4.573000000     1.235000000
O    -0.169000000     6.231000000    -1.437000000
H     0.238000000     7.029000000    -1.097000000
H    -0.739000000     5.933000000    -0.728000000
O    -3.790000000     4.928000000    -3.628000000
H    -3.537000000     4.312000000    -2.941000000
H    -4.274000000     5.614000000    -3.169000000
O    -6.071000000     3.964000000    -1.629000000
H    -6.819000000     3.569000000    -1.181000000
H    -5.306000000     3.550000000    -1.231000000
O    -8.260000000     1.117000000    -5.501000000
H    -7.640000000     0.990000000    -6.220000000
H    -7.937000000     1.893000000    -5.041000000
O    -8.371000000     1.982000000     2.361000000
H    -9.039000000     1.726000000     2.997000000
H    -7.567000000     2.056000000     2.874000000
O    -3.278000000     8.033000000     2.382000000
H    -4.040000000     7.457000000     2.322000000
H    -3.023000000     8.188000000     1.473000000
O    -2.602000000     5.277000000    -0.411000000
H    -3.297000000     5.779000000    -0.837000000
H    -2.698000000     4.391000000    -0.760000000
O    -1.648000000     6.574000000    -3.846000000
H    -2.354000000     5.972000000    -4.082000000
H    -1.411000000     6.326000000    -2.953000000
O    -5.226000000     3.492000000     2.332000000
H    -4.992000000     3.104000000     1.489000000
H    -5.314000000     4.428000000     2.149000000
