215
-1462.22768
C    -4.293000000     0.839000000     0.043000000
H    -3.973000000    -0.112000000     0.462000000
C    -4.092000000     1.050000000    -1.348000000
C    -4.304000000     2.244000000    -1.927000000
H    -4.173000000     2.393000000    -2.996000000
C    -3.495000000    -0.115000000    -2.173000000
O    -4.209000000    -1.401000000    -2.071000000
H    -2.503000000    -0.240000000    -1.717000000
O    -3.450000000     0.212000000    -3.530000000
C    -2.269000000     0.101000000    -4.143000000
C    -1.555000000     1.284000000    -4.202000000
H    -2.041000000     2.216000000    -3.926000000
C    -0.169000000     1.185000000    -4.544000000
O     0.564000000     2.367000000    -4.459000000
C     0.370000000    -0.027000000    -4.981000000
C     1.851000000    -0.202000000    -5.312000000
H     1.895000000    -1.112000000    -5.913000000
C     2.612000000    -0.381000000    -4.035000000
C     2.835000000    -1.665000000    -3.537000000
H     2.445000000    -2.529000000    -4.068000000
H     2.346000000     0.653000000    -5.778000000
C    -0.460000000    -1.171000000    -5.001000000
H    -0.014000000    -2.103000000    -5.339000000
C    -1.785000000    -1.106000000    -4.542000000
C    -2.594000000    -2.359000000    -4.370000000
H    -2.360000000    -3.158000000    -5.076000000
H    -3.596000000    -2.110000000    -4.726000000
C    -2.553000000    -2.945000000    -2.899000000
C    -1.679000000    -3.995000000    -2.524000000
H    -0.941000000    -4.313000000    -3.255000000
C    -3.472000000    -2.530000000    -1.908000000
C    -3.495000000    -3.161000000    -0.674000000
H    -4.172000000    -2.795000000     0.093000000
C    -2.505000000    -4.145000000    -0.332000000
O    -2.320000000    -4.462000000     1.038000000
C    -1.251000000    -3.840000000     1.815000000
C    -1.665000000    -3.498000000     3.220000000
C    -0.753000000    -3.592000000     4.260000000
H     0.250000000    -3.947000000     4.035000000
C    -2.924000000    -2.957000000     3.483000000
H    -3.617000000    -2.847000000     2.652000000
O    -0.142000000    -4.783000000     1.753000000
H    -0.975000000    -2.895000000     1.324000000
C    -1.657000000    -4.636000000    -1.292000000
C    -0.532000000    -5.662000000    -1.035000000
H    -0.244000000    -6.161000000    -1.963000000
H    -0.848000000    -6.363000000    -0.259000000
C     0.736000000    -4.896000000    -0.526000000
C     1.751000000    -4.575000000    -1.442000000
H     1.688000000    -5.040000000    -2.422000000
C     0.867000000    -4.489000000     0.789000000
C     1.992000000    -3.786000000     1.232000000
H     2.023000000    -3.474000000     2.273000000
C     2.989000000    -3.517000000     0.314000000
O     4.029000000    -2.825000000     0.790000000
C     3.893000000    -1.385000000     0.579000000
C     4.087000000    -0.577000000     1.897000000
C     3.924000000    -1.165000000     3.157000000
H     3.718000000    -2.231000000     3.212000000
C     4.318000000     0.786000000     1.817000000
H     4.526000000     1.226000000     0.845000000
O     4.763000000    -0.939000000    -0.528000000
H     2.878000000    -1.164000000     0.217000000
C     2.925000000    -3.874000000    -1.052000000
C     4.011000000    -3.352000000    -2.005000000
H     3.991000000    -3.976000000    -2.901000000
H     4.920000000    -3.373000000    -1.400000000
C     3.678000000    -1.917000000    -2.428000000
C     4.150000000    -0.801000000    -1.739000000
C     3.846000000     0.553000000    -2.167000000
H     4.287000000     1.395000000    -1.640000000
C     3.134000000     0.743000000    -3.347000000
O     2.788000000     2.004000000    -3.719000000
C     1.478000000     2.408000000    -3.351000000
H     0.952000000     1.784000000    -2.614000000
C     1.502000000     3.852000000    -2.762000000
C     0.465000000     4.682000000    -2.959000000
H    -0.440000000     4.365000000    -3.471000000
C     2.614000000     4.241000000    -2.048000000
H     3.330000000     3.488000000    -1.726000000
C     2.702000000     5.481000000    -1.437000000
O     3.665000000     5.930000000    -0.583000000
C     1.551000000     6.333000000    -1.551000000
H     1.513000000     7.340000000    -1.144000000
C     0.408000000     5.899000000    -2.253000000
O    -0.743000000     6.667000000    -2.323000000
C    -1.960000000     6.300000000    -2.812000000
C    -2.796000000     5.409000000    -2.095000000
H    -2.506000000     4.998000000    -1.132000000
C    -2.409000000     7.005000000    -3.882000000
H    -1.833000000     7.849000000    -4.251000000
C    -3.630000000     6.688000000    -4.496000000
H    -4.053000000     7.143000000    -5.388000000
C    -4.512000000     5.761000000    -3.848000000
H    -5.473000000     5.483000000    -4.273000000
C    -4.103000000     5.239000000    -2.558000000
O    -5.008000000     4.477000000    -1.790000000
C    -4.634000000     3.324000000    -1.127000000
C    -4.854000000     3.150000000     0.278000000
H    -5.191000000     3.999000000     0.867000000
C    -4.725000000     1.848000000     0.869000000
O    -4.773000000     1.723000000     2.259000000
C    -5.439000000     0.706000000     2.876000000
C    -4.705000000    -0.149000000     3.655000000
H    -3.628000000    -0.043000000     3.556000000
C    -6.800000000     0.665000000     2.983000000
H    -7.426000000     1.370000000     2.442000000
C    -7.450000000    -0.367000000     3.691000000
H    -8.529000000    -0.483000000     3.745000000
C    -6.678000000    -1.371000000     4.325000000
H    -7.150000000    -2.271000000     4.711000000
C    -5.285000000    -1.199000000     4.364000000
O    -4.578000000    -2.125000000     5.136000000
C    -3.317000000    -2.668000000     4.780000000
C    -2.454000000    -2.825000000     5.812000000
H    -2.716000000    -2.564000000     6.834000000
C    -1.151000000    -3.264000000     5.545000000
O    -0.167000000    -3.413000000     6.530000000
C     1.168000000    -3.422000000     6.244000000
C     1.835000000    -2.274000000     6.091000000
H     1.281000000    -1.353000000     6.254000000
C     1.904000000    -4.609000000     6.117000000
H     1.345000000    -5.541000000     6.132000000
C     3.245000000    -4.583000000     5.882000000
H     3.780000000    -5.502000000     5.660000000
C     3.960000000    -3.403000000     5.729000000
H     4.994000000    -3.288000000     5.415000000
C     3.224000000    -2.183000000     5.809000000
O     3.694000000    -0.971000000     5.603000000
C     3.875000000    -0.388000000     4.345000000
C     4.067000000     0.980000000     4.251000000
H     3.968000000     1.619000000     5.125000000
C     4.305000000     1.563000000     3.039000000
O     4.342000000     2.937000000     2.967000000
C     4.865000000     3.615000000     1.911000000
C     6.165000000     3.480000000     1.603000000
H     6.751000000     2.741000000     2.145000000
C     6.701000000     4.219000000     0.504000000
H     7.722000000     4.086000000     0.155000000
C     5.888000000     5.067000000    -0.204000000
H     6.231000000     5.504000000    -1.139000000
C     4.532000000     5.139000000     0.136000000
C     4.042000000     4.535000000     1.263000000
H     2.987000000     4.636000000     1.504000000
C    -0.705000000     1.748000000     3.023000000
H    -0.843000000     1.450000000     4.059000000
C    -0.117000000     0.800000000     2.195000000
H     0.195000000    -0.128000000     2.666000000
C     0.120000000     1.136000000     0.889000000
H     0.481000000     0.359000000     0.272000000
C    -0.192000000     2.382000000     0.367000000
H     0.154000000     2.629000000    -0.633000000
C    -0.667000000     3.309000000     1.230000000
H    -0.731000000     4.346000000     0.908000000
C    -0.946000000     3.076000000     2.582000000
C    -1.232000000     4.268000000     3.456000000
O    -1.592000000     5.347000000     2.933000000
O    -1.122000000     4.207000000     4.659000000
O    -2.297000000     0.641000000     7.111000000
H    -2.955000000     0.915000000     6.472000000
H    -2.520000000    -0.268000000     7.309000000
O    -3.042000000     8.668000000     0.115000000
H    -2.637000000     7.804000000     0.198000000
H    -2.939000000     8.892000000    -0.810000000
O     2.231000000     8.680000000     2.423000000
H     2.321000000     9.116000000     1.576000000
H     1.433000000     8.158000000     2.340000000
O    -6.262000000     3.743000000     4.623000000
H    -7.041000000     4.027000000     4.144000000
H    -5.529000000     4.093000000     4.116000000
O    -4.761000000     1.430000000     6.185000000
H    -5.202000000     1.025000000     6.932000000
H    -5.464000000     1.614000000     5.562000000
O    -1.452000000     6.516000000     0.611000000
H    -0.622000000     6.981000000     0.712000000
H    -1.485000000     5.919000000     1.358000000
O    -3.207000000     3.840000000     6.088000000
H    -3.676000000     3.044000000     5.838000000
H    -2.557000000     3.963000000     5.395000000
O    -5.605000000     5.298000000     6.699000000
H    -4.694000000     5.432000000     6.436000000
H    -5.896000000     4.549000000     6.179000000
O     0.508000000     1.071000000     7.292000000
H    -0.431000000     0.886000000     7.276000000
H     0.632000000     1.740000000     6.619000000
O    -5.533000000     6.862000000     0.715000000
H    -5.148000000     6.419000000     1.471000000
H    -4.788000000     7.052000000     0.144000000
O    -3.188000000     7.313000000     5.673000000
H    -3.410000000     7.262000000     6.603000000
H    -2.231000000     7.349000000     5.657000000
O     2.451000000     4.146000000     8.287000000
H     1.650000000     4.416000000     8.735000000
H     2.145000000     3.680000000     7.509000000
O    -0.363000000     7.526000000     3.391000000
H    -0.826000000     6.718000000     3.173000000
H    -1.038000000     8.204000000     3.363000000
O     1.098000000     3.339000000     5.733000000
H     1.636000000     3.368000000     4.942000000
H     0.257000000     3.708000000     5.463000000
O    -4.160000000     5.871000000     3.379000000
H    -3.300000000     5.451000000     3.404000000
H    -4.059000000     6.655000000     3.919000000
O     1.555000000     7.071000000     5.063000000
H     0.731000000     7.188000000     4.589000000
H     2.120000000     7.770000000     4.735000000
O    -3.695000000     3.308000000     8.779000000
H    -3.499000000     2.371000000     8.793000000
H    -3.685000000     3.541000000     7.850000000
O    -3.037000000     6.668000000     8.530000000
H    -3.271000000     5.949000000     9.117000000
H    -2.247000000     6.364000000     8.083000000
O    -0.975000000     5.743000000     7.098000000
H    -0.310000000     5.306000000     7.629000000
H    -0.996000000     5.243000000     6.281000000
