215
-1480.67740
C    -4.566000000     0.688000000    -0.398000000
H    -4.464000000    -0.305000000     0.031000000
C    -4.037000000     0.955000000    -1.667000000
C    -4.117000000     2.303000000    -2.115000000
H    -3.697000000     2.502000000    -3.098000000
C    -3.325000000    -0.160000000    -2.458000000
O    -4.096000000    -1.341000000    -2.506000000
H    -2.304000000    -0.376000000    -2.112000000
O    -3.176000000     0.315000000    -3.833000000
C    -1.873000000     0.077000000    -4.331000000
C    -1.029000000     1.213000000    -4.393000000
H    -1.456000000     2.204000000    -4.262000000
C     0.311000000     0.936000000    -4.599000000
O     1.159000000     2.047000000    -4.472000000
C     0.832000000    -0.345000000    -4.768000000
C     2.332000000    -0.449000000    -5.088000000
H     2.326000000    -1.371000000    -5.674000000
C     3.104000000    -0.550000000    -3.777000000
C     3.382000000    -1.859000000    -3.272000000
H     2.995000000    -2.706000000    -3.832000000
H     2.734000000     0.380000000    -5.674000000
C    -0.028000000    -1.436000000    -4.696000000
H     0.335000000    -2.399000000    -5.046000000
C    -1.383000000    -1.236000000    -4.465000000
C    -2.190000000    -2.484000000    -4.435000000
H    -1.611000000    -3.193000000    -5.031000000
H    -3.172000000    -2.411000000    -4.908000000
C    -2.455000000    -3.016000000    -3.053000000
C    -1.644000000    -4.067000000    -2.619000000
H    -0.984000000    -4.515000000    -3.358000000
C    -3.392000000    -2.453000000    -2.217000000
C    -3.320000000    -2.835000000    -0.858000000
H    -3.901000000    -2.249000000    -0.151000000
C    -2.501000000    -3.863000000    -0.387000000
O    -2.568000000    -4.065000000     0.980000000
C    -1.423000000    -3.449000000     1.768000000
C    -1.977000000    -3.125000000     3.178000000
C    -1.064000000    -2.714000000     4.146000000
H     0.005000000    -2.871000000     4.024000000
C    -3.323000000    -2.810000000     3.400000000
H    -4.096000000    -2.905000000     2.643000000
O    -0.337000000    -4.310000000     1.917000000
H    -1.235000000    -2.437000000     1.378000000
C    -1.558000000    -4.500000000    -1.282000000
C    -0.544000000    -5.519000000    -0.779000000
H    -0.357000000    -6.264000000    -1.555000000
H    -0.946000000    -6.034000000     0.096000000
C     0.665000000    -4.737000000    -0.240000000
C     1.799000000    -4.613000000    -1.043000000
H     1.797000000    -4.911000000    -2.088000000
C     0.709000000    -4.200000000     1.053000000
C     1.861000000    -3.664000000     1.572000000
H     1.911000000    -3.345000000     2.610000000
C     2.979000000    -3.494000000     0.778000000
O     4.017000000    -2.726000000     1.299000000
C     3.806000000    -1.343000000     1.119000000
C     4.133000000    -0.517000000     2.372000000
C     3.752000000    -0.943000000     3.626000000
H     3.265000000    -1.910000000     3.729000000
C     4.653000000     0.771000000     2.217000000
H     5.006000000     1.096000000     1.242000000
O     4.650000000    -0.985000000     0.043000000
H     2.736000000    -1.198000000     0.912000000
C     2.904000000    -3.849000000    -0.565000000
C     3.977000000    -3.425000000    -1.496000000
H     3.966000000    -4.019000000    -2.412000000
H     4.912000000    -3.529000000    -0.940000000
C     3.875000000    -1.990000000    -1.953000000
C     4.192000000    -0.886000000    -1.240000000
C     4.164000000     0.377000000    -1.842000000
H     4.431000000     1.209000000    -1.196000000
C     3.536000000     0.588000000    -3.027000000
O     3.159000000     1.908000000    -3.410000000
C     1.803000000     2.208000000    -3.186000000
H     1.315000000     1.478000000    -2.524000000
C     1.620000000     3.673000000    -2.674000000
C     0.655000000     4.609000000    -3.115000000
H     0.151000000     4.513000000    -4.074000000
C     2.304000000     4.004000000    -1.515000000
H     3.074000000     3.343000000    -1.125000000
C     2.257000000     5.262000000    -0.992000000
O     2.971000000     5.507000000     0.157000000
C     1.266000000     6.177000000    -1.398000000
H     1.242000000     7.199000000    -1.027000000
C     0.489000000     5.855000000    -2.489000000
O    -0.497000000     6.709000000    -2.765000000
C    -1.747000000     6.244000000    -3.175000000
C    -2.627000000     5.547000000    -2.294000000
H    -2.464000000     5.587000000    -1.220000000
C    -2.088000000     6.383000000    -4.530000000
H    -1.308000000     6.845000000    -5.129000000
C    -3.299000000     5.918000000    -5.016000000
H    -3.517000000     6.039000000    -6.074000000
C    -4.188000000     5.342000000    -4.093000000
H    -5.124000000     4.885000000    -4.404000000
C    -3.863000000     5.127000000    -2.743000000
O    -4.826000000     4.623000000    -1.879000000
C    -4.679000000     3.325000000    -1.328000000
C    -5.228000000     2.995000000    -0.094000000
H    -5.771000000     3.709000000     0.520000000
C    -5.218000000     1.642000000     0.350000000
O    -5.812000000     1.443000000     1.611000000
C    -6.088000000     0.154000000     2.075000000
C    -5.414000000    -0.201000000     3.227000000
H    -4.568000000     0.386000000     3.575000000
C    -7.113000000    -0.618000000     1.444000000
H    -7.630000000    -0.189000000     0.590000000
C    -7.501000000    -1.838000000     2.085000000
H    -8.202000000    -2.543000000     1.646000000
C    -6.818000000    -2.226000000     3.257000000
H    -7.142000000    -3.103000000     3.811000000
C    -5.801000000    -1.397000000     3.843000000
O    -5.032000000    -1.887000000     4.904000000
C    -3.757000000    -2.239000000     4.603000000
C    -2.829000000    -2.023000000     5.605000000
H    -3.074000000    -1.573000000     6.564000000
C    -1.483000000    -2.270000000     5.395000000
O    -0.639000000    -2.002000000     6.474000000
C     0.634000000    -2.376000000     6.479000000
C     1.587000000    -1.341000000     6.212000000
H     1.321000000    -0.288000000     6.151000000
C     1.059000000    -3.684000000     6.826000000
H     0.304000000    -4.458000000     6.936000000
C     2.423000000    -3.900000000     6.913000000
H     2.732000000    -4.899000000     7.210000000
C     3.374000000    -2.887000000     6.640000000
H     4.431000000    -3.088000000     6.794000000
C     2.948000000    -1.640000000     6.214000000
O     3.788000000    -0.597000000     5.950000000
C     3.991000000    -0.151000000     4.708000000
C     4.552000000     1.124000000     4.542000000
H     4.890000000     1.658000000     5.427000000
C     4.922000000     1.581000000     3.258000000
O     5.568000000     2.776000000     3.115000000
C     5.452000000     3.554000000     1.950000000
C     6.521000000     3.630000000     1.108000000
H     7.464000000     3.133000000     1.323000000
C     6.421000000     4.368000000    -0.065000000
H     7.244000000     4.298000000    -0.771000000
C     5.247000000     4.995000000    -0.454000000
H     5.165000000     5.421000000    -1.450000000
C     4.142000000     4.845000000     0.424000000
C     4.286000000     4.282000000     1.682000000
H     3.540000000     4.364000000     2.468000000
C    -0.646000000     1.088000000     2.379000000
H    -0.631000000     1.096000000     3.466000000
C    -0.017000000    -0.022000000     1.844000000
H     0.315000000    -0.880000000     2.423000000
C     0.036000000    -0.033000000     0.478000000
H     0.346000000    -0.991000000    -0.007000000
C    -0.564000000     0.990000000    -0.274000000
H    -0.580000000     0.912000000    -1.358000000
C    -1.172000000     2.043000000     0.313000000
H    -1.668000000     2.736000000    -0.361000000
C    -1.265000000     2.156000000     1.693000000
C    -2.059000000     3.283000000     2.281000000
O    -2.385000000     4.231000000     1.575000000
O    -2.046000000     3.347000000     3.552000000
O    -1.089000000     1.459000000     8.495000000
H    -1.322000000     0.576000000     8.780000000
H    -0.904000000     1.368000000     7.560000000
O     1.636000000     6.676000000     3.778000000
H     1.353000000     6.330000000     2.932000000
H     1.033000000     7.399000000     3.955000000
O    -4.576000000     3.079000000     4.315000000
H    -5.051000000     3.782000000     3.871000000
H    -3.684000000     3.139000000     3.972000000
O    -4.141000000     1.044000000     6.277000000
H    -4.851000000     0.430000000     6.462000000
H    -4.500000000     1.632000000     5.612000000
O    -1.906000000     8.053000000     0.774000000
H    -2.714000000     7.629000000     1.062000000
H    -1.207000000     7.536000000     1.175000000
O    -1.667000000     1.960000000     5.679000000
H    -2.506000000     1.537000000     5.861000000
H    -1.807000000     2.425000000     4.854000000
O    -5.612000000     5.539000000     4.096000000
H    -5.552000000     5.738000000     5.030000000
H    -6.315000000     6.104000000     3.775000000
O     1.517000000     4.986000000     5.741000000
H     0.691000000     5.225000000     6.162000000
H     1.671000000     5.685000000     5.105000000
O    -0.712000000     7.736000000     4.790000000
H    -1.228000000     7.048000000     5.210000000
H    -1.355000000     8.257000000     4.309000000
O     0.958000000     2.362000000     6.554000000
H     1.173000000     3.251000000     6.271000000
H     0.065000000     2.220000000     6.240000000
O    -3.765000000     6.456000000     1.756000000
H    -3.351000000     5.603000000     1.629000000
H    -4.502000000     6.281000000     2.341000000
O    -2.816000000     9.258000000     3.522000000
H    -3.721000000     8.958000000     3.429000000
H    -2.542000000     9.473000000     2.631000000
O    -0.095000000     6.042000000     1.711000000
H     0.319000000     5.611000000     0.963000000
H    -0.705000000     5.389000000     2.056000000
O    -7.158000000     3.569000000     6.839000000
H    -6.942000000     2.742000000     6.409000000
H    -6.991000000     3.406000000     7.768000000
O    -8.352000000     2.791000000     3.851000000
H    -7.861000000     2.131000000     4.340000000
H    -7.791000000     3.003000000     3.105000000
O    -1.170000000     5.504000000     7.049000000
H    -1.684000000     5.475000000     6.242000000
H    -1.487000000     6.282000000     7.507000000
O    -2.605000000     5.624000000     4.682000000
H    -3.542000000     5.501000000     4.532000000
H    -2.199000000     4.839000000     4.314000000
O    -6.954000000     6.774000000     0.342000000
H    -6.881000000     7.721000000     0.226000000
H    -6.350000000     6.406000000    -0.304000000
O     0.335000000     4.230000000     8.960000000
H     0.203000000     3.283000000     8.939000000
H    -0.246000000     4.569000000     8.279000000
