215
-1458.03962
C    -5.341000000     0.519000000    -1.357000000
H    -5.403000000    -0.468000000    -0.906000000
C    -4.435000000     0.783000000    -2.367000000
C    -4.227000000     2.063000000    -2.836000000
H    -3.392000000     2.294000000    -3.492000000
C    -3.659000000    -0.375000000    -2.944000000
O    -4.251000000    -1.741000000    -2.848000000
H    -2.794000000    -0.414000000    -2.265000000
O    -3.208000000     0.012000000    -4.289000000
C    -1.838000000    -0.235000000    -4.482000000
C    -0.943000000     0.888000000    -4.435000000
H    -1.294000000     1.897000000    -4.238000000
C     0.459000000     0.708000000    -4.512000000
O     1.270000000     1.805000000    -4.424000000
C     0.969000000    -0.567000000    -4.671000000
C     2.516000000    -0.657000000    -4.860000000
H     2.629000000    -1.541000000    -5.491000000
C     3.288000000    -0.792000000    -3.518000000
C     3.442000000    -2.086000000    -2.949000000
H     3.041000000    -2.953000000    -3.468000000
H     3.017000000     0.107000000    -5.457000000
C     0.093000000    -1.690000000    -4.703000000
H     0.533000000    -2.683000000    -4.749000000
C    -1.266000000    -1.553000000    -4.619000000
C    -2.172000000    -2.750000000    -4.530000000
H    -1.742000000    -3.587000000    -5.085000000
H    -3.157000000    -2.588000000    -4.973000000
C    -2.289000000    -3.136000000    -3.099000000
C    -1.415000000    -4.081000000    -2.556000000
H    -0.593000000    -4.391000000    -3.196000000
C    -3.405000000    -2.734000000    -2.336000000
C    -3.475000000    -3.063000000    -0.970000000
H    -4.367000000    -2.689000000    -0.474000000
C    -2.502000000    -3.875000000    -0.426000000
O    -2.571000000    -4.118000000     0.956000000
C    -1.531000000    -3.484000000     1.791000000
C    -2.028000000    -2.789000000     3.045000000
C    -1.305000000    -2.835000000     4.198000000
H    -0.379000000    -3.382000000     4.356000000
C    -3.094000000    -1.960000000     2.951000000
H    -3.568000000    -1.890000000     1.976000000
O    -0.627000000    -4.550000000     2.061000000
H    -1.102000000    -2.715000000     1.132000000
C    -1.518000000    -4.491000000    -1.238000000
C    -0.596000000    -5.522000000    -0.609000000
H    -0.229000000    -6.175000000    -1.403000000
H    -1.163000000    -6.159000000     0.073000000
C     0.597000000    -4.829000000     0.066000000
C     1.744000000    -4.673000000    -0.666000000
H     1.746000000    -4.911000000    -1.726000000
C     0.543000000    -4.440000000     1.406000000
C     1.658000000    -3.823000000     2.070000000
H     1.519000000    -3.318000000     3.023000000
C     2.800000000    -3.515000000     1.260000000
O     3.704000000    -2.655000000     1.839000000
C     3.857000000    -1.334000000     1.320000000
C     4.104000000    -0.331000000     2.452000000
C     3.426000000    -0.434000000     3.633000000
H     2.767000000    -1.288000000     3.767000000
C     5.058000000     0.708000000     2.381000000
H     5.654000000     0.903000000     1.493000000
O     4.893000000    -1.309000000     0.311000000
H     2.913000000    -1.005000000     0.862000000
C     2.867000000    -4.021000000    -0.062000000
C     4.033000000    -3.765000000    -1.041000000
H     3.925000000    -4.488000000    -1.852000000
H     5.035000000    -3.877000000    -0.620000000
C     3.946000000    -2.315000000    -1.638000000
C     4.391000000    -1.184000000    -0.952000000
C     4.294000000     0.107000000    -1.484000000
H     4.494000000     0.980000000    -0.869000000
C     3.700000000     0.279000000    -2.784000000
O     3.354000000     1.582000000    -3.209000000
C     1.954000000     1.961000000    -3.125000000
H     1.642000000     1.181000000    -2.415000000
C     1.806000000     3.389000000    -2.494000000
C     0.676000000     4.123000000    -2.509000000
H    -0.067000000     3.684000000    -3.171000000
C     2.778000000     3.823000000    -1.537000000
H     3.561000000     3.121000000    -1.263000000
C     2.610000000     4.979000000    -0.756000000
O     3.449000000     5.300000000     0.286000000
C     1.492000000     5.753000000    -0.874000000
H     1.340000000     6.622000000    -0.239000000
C     0.506000000     5.290000000    -1.727000000
O    -0.585000000     6.152000000    -1.850000000
C    -1.571000000     5.869000000    -2.765000000
C    -2.809000000     5.447000000    -2.233000000
H    -2.981000000     5.299000000    -1.170000000
C    -1.389000000     6.253000000    -4.098000000
H    -0.369000000     6.498000000    -4.383000000
C    -2.365000000     5.837000000    -4.974000000
H    -2.289000000     5.846000000    -6.059000000
C    -3.618000000     5.267000000    -4.515000000
H    -4.389000000     5.134000000    -5.270000000
C    -3.726000000     5.012000000    -3.150000000
O    -4.931000000     4.488000000    -2.735000000
C    -5.045000000     3.125000000    -2.348000000
C    -5.972000000     2.877000000    -1.349000000
H    -6.487000000     3.754000000    -0.968000000
C    -6.153000000     1.550000000    -0.871000000
O    -7.110000000     1.350000000     0.188000000
C    -6.931000000     0.483000000     1.177000000
C    -5.892000000     0.638000000     2.100000000
H    -5.231000000     1.500000000     2.079000000
C    -7.761000000    -0.658000000     1.232000000
H    -8.584000000    -0.847000000     0.546000000
C    -7.576000000    -1.530000000     2.290000000
H    -8.085000000    -2.480000000     2.431000000
C    -6.468000000    -1.480000000     3.129000000
H    -6.293000000    -2.307000000     3.812000000
C    -5.624000000    -0.387000000     3.029000000
O    -4.571000000    -0.229000000     3.917000000
C    -3.497000000    -1.119000000     3.993000000
C    -2.827000000    -1.195000000     5.215000000
H    -3.131000000    -0.604000000     6.075000000
C    -1.733000000    -2.038000000     5.334000000
O    -1.253000000    -2.242000000     6.545000000
C     0.110000000    -2.222000000     6.704000000
C     0.836000000    -1.101000000     6.309000000
H     0.266000000    -0.288000000     5.866000000
C     0.847000000    -3.330000000     7.041000000
H     0.231000000    -4.182000000     7.318000000
C     2.199000000    -3.348000000     7.056000000
H     2.739000000    -4.243000000     7.356000000
C     2.921000000    -2.146000000     6.639000000
H     4.001000000    -2.184000000     6.524000000
C     2.250000000    -1.015000000     6.221000000
O     2.956000000     0.087000000     5.949000000
C     3.578000000     0.389000000     4.768000000
C     4.520000000     1.414000000     4.669000000
H     4.703000000     2.047000000     5.534000000
C     5.231000000     1.605000000     3.469000000
O     6.088000000     2.705000000     3.306000000
C     5.924000000     3.570000000     2.248000000
C     7.086000000     4.045000000     1.657000000
H     8.019000000     3.731000000     2.120000000
C     7.015000000     4.774000000     0.526000000
H     7.937000000     5.093000000     0.046000000
C     5.787000000     5.184000000     0.000000000
H     5.721000000     5.792000000    -0.899000000
C     4.637000000     4.723000000     0.601000000
C     4.694000000     3.776000000     1.658000000
H     3.842000000     3.250000000     2.080000000
C    -0.737000000     0.889000000     2.027000000
H    -0.660000000     0.824000000     3.110000000
C    -0.017000000    -0.071000000     1.222000000
H     0.515000000    -0.812000000     1.813000000
C     0.063000000     0.065000000    -0.091000000
H     0.616000000    -0.730000000    -0.651000000
C    -0.581000000     1.086000000    -0.750000000
H    -0.466000000     1.163000000    -1.828000000
C    -1.394000000     1.925000000    -0.005000000
H    -1.960000000     2.705000000    -0.507000000
C    -1.457000000     1.886000000     1.376000000
C    -2.286000000     2.842000000     2.161000000
O    -2.639000000     3.828000000     1.596000000
O    -2.459000000     2.806000000     3.348000000
O    -4.137000000     6.022000000     6.424000000
H    -3.388000000     6.380000000     5.947000000
H    -3.786000000     5.259000000     6.884000000
O    -0.422000000     8.165000000     4.021000000
H    -0.712000000     7.270000000     3.841000000
H     0.110000000     8.402000000     3.261000000
O    -4.783000000     2.612000000     4.746000000
H    -5.060000000     3.523000000     4.651000000
H    -3.996000000     2.543000000     4.205000000
O    -7.185000000     1.459000000     5.232000000
H    -6.258000000     1.565000000     5.020000000
H    -7.289000000     1.892000000     6.079000000
O    -3.583000000     1.727000000     7.316000000
H    -3.889000000     2.556000000     7.685000000
H    -3.986000000     1.687000000     6.449000000
O    -0.771000000     7.452000000     0.839000000
H    -1.654000000     7.819000000     0.795000000
H    -0.614000000     7.100000000    -0.038000000
O    -1.239000000     2.308000000     5.766000000
H    -1.907000000     2.006000000     6.383000000
H    -1.718000000     2.463000000     4.952000000
O     0.126000000     1.885000000     8.062000000
H    -0.496000000     2.452000000     8.518000000
H    -0.171000000     1.886000000     7.153000000
O    -5.875000000     5.298000000     4.373000000
H    -5.461000000     5.714000000     5.130000000
H    -6.630000000     5.853000000     4.179000000
O     3.015000000     6.219000000     3.115000000
H     2.783000000     5.761000000     2.307000000
H     2.223000000     6.175000000     3.651000000
O    -5.729000000     7.342000000    -0.294000000
H    -5.542000000     6.480000000     0.076000000
H    -5.764000000     7.926000000     0.464000000
O    -0.857000000     6.651000000     6.631000000
H    -0.203000000     6.060000000     6.256000000
H    -0.958000000     7.342000000     5.976000000
O     2.953000000     3.911000000     6.056000000
H     2.157000000     3.883000000     5.526000000
H     2.923000000     3.109000000     6.577000000
O    -5.009000000     5.176000000     1.288000000
H    -4.181000000     4.702000000     1.215000000
H    -5.289000000     5.034000000     2.192000000
O    -3.515000000     8.873000000     3.936000000
H    -2.853000000     9.494000000     4.240000000
H    -3.045000000     8.294000000     3.336000000
O     0.407000000     5.298000000     2.106000000
H    -0.307000000     5.820000000     1.741000000
H     0.660000000     4.708000000     1.396000000
O    -8.466000000     2.597000000     3.058000000
H    -7.651000000     2.765000000     2.584000000
H    -8.185000000     2.211000000     3.888000000
O     0.576000000     4.227000000     4.753000000
H     0.487000000     4.418000000     3.820000000
H    -0.096000000     3.568000000     4.928000000
O    -2.439000000     5.638000000     3.693000000
H    -2.777000000     4.748000000     3.796000000
H    -2.457000000     5.794000000     2.749000000
