215
-1452.36544
C    -4.196000000     1.237000000    -0.657000000
H    -4.237000000     0.286000000    -0.133000000
C    -3.704000000     1.300000000    -1.948000000
C    -3.622000000     2.476000000    -2.572000000
H    -3.351000000     2.576000000    -3.620000000
C    -3.053000000     0.006000000    -2.553000000
O    -3.907000000    -1.155000000    -2.384000000
H    -2.191000000    -0.241000000    -1.916000000
O    -2.646000000     0.147000000    -3.961000000
C    -1.419000000    -0.267000000    -4.418000000
C    -0.439000000     0.699000000    -4.518000000
H    -0.730000000     1.722000000    -4.292000000
C     0.896000000     0.329000000    -4.637000000
O     1.851000000     1.336000000    -4.483000000
C     1.267000000    -0.995000000    -4.705000000
C     2.696000000    -1.457000000    -4.759000000
H     2.830000000    -2.437000000    -5.221000000
C     3.319000000    -1.625000000    -3.358000000
C     3.349000000    -2.877000000    -2.752000000
H     2.886000000    -3.717000000    -3.263000000
H     3.373000000    -0.822000000    -5.334000000
C     0.207000000    -1.968000000    -4.773000000
H     0.427000000    -3.023000000    -4.910000000
C    -1.104000000    -1.627000000    -4.452000000
C    -2.191000000    -2.596000000    -4.301000000
H    -1.850000000    -3.444000000    -4.899000000
H    -3.165000000    -2.359000000    -4.733000000
C    -2.487000000    -3.136000000    -2.872000000
C    -1.833000000    -4.254000000    -2.378000000
H    -1.064000000    -4.718000000    -2.992000000
C    -3.387000000    -2.335000000    -2.005000000
C    -3.538000000    -2.746000000    -0.714000000
H    -4.082000000    -2.083000000    -0.046000000
C    -2.937000000    -3.880000000    -0.206000000
O    -3.057000000    -4.201000000     1.114000000
C    -2.112000000    -3.614000000     1.953000000
C    -2.744000000    -2.902000000     3.186000000
C    -1.906000000    -2.446000000     4.260000000
H    -0.856000000    -2.722000000     4.213000000
C    -4.076000000    -2.554000000     3.228000000
H    -4.780000000    -2.816000000     2.443000000
O    -1.091000000    -4.572000000     2.335000000
H    -1.602000000    -2.834000000     1.369000000
C    -2.122000000    -4.607000000    -1.026000000
C    -1.172000000    -5.596000000    -0.369000000
H    -0.889000000    -6.264000000    -1.185000000
H    -1.791000000    -6.166000000     0.327000000
C     0.076000000    -4.978000000     0.238000000
C     1.240000000    -4.840000000    -0.538000000
H     1.291000000    -5.144000000    -1.581000000
C     0.013000000    -4.497000000     1.571000000
C     1.148000000    -3.953000000     2.139000000
H     1.146000000    -3.631000000     3.177000000
C     2.284000000    -3.811000000     1.380000000
O     3.339000000    -3.162000000     2.018000000
C     3.745000000    -1.858000000     1.451000000
C     3.958000000    -0.769000000     2.462000000
C     3.130000000    -0.724000000     3.589000000
H     2.411000000    -1.530000000     3.708000000
C     4.956000000     0.170000000     2.253000000
H     5.641000000     0.119000000     1.410000000
O     4.850000000    -2.037000000     0.506000000
H     2.762000000    -1.611000000     1.024000000
C     2.332000000    -4.307000000     0.064000000
C     3.607000000    -4.385000000    -0.753000000
H     3.605000000    -5.160000000    -1.523000000
H     4.404000000    -4.613000000    -0.042000000
C     3.801000000    -3.032000000    -1.438000000
C     4.411000000    -1.939000000    -0.760000000
C     4.415000000    -0.655000000    -1.385000000
H     4.792000000     0.209000000    -0.843000000
C     3.770000000    -0.430000000    -2.620000000
O     3.629000000     0.828000000    -3.096000000
C     2.320000000     1.452000000    -3.127000000
H     1.644000000     0.989000000    -2.393000000
C     2.323000000     2.947000000    -2.736000000
C     1.548000000     3.911000000    -3.465000000
H     0.873000000     3.544000000    -4.234000000
C     3.106000000     3.429000000    -1.624000000
H     3.759000000     2.788000000    -1.038000000
C     3.098000000     4.738000000    -1.274000000
O     3.747000000     5.259000000    -0.187000000
C     2.267000000     5.642000000    -1.891000000
H     2.047000000     6.663000000    -1.591000000
C     1.500000000     5.215000000    -3.018000000
O     0.677000000     6.185000000    -3.579000000
C    -0.626000000     5.963000000    -3.993000000
C    -1.568000000     5.339000000    -3.191000000
H    -1.311000000     4.949000000    -2.210000000
C    -1.108000000     6.527000000    -5.133000000
H    -0.401000000     7.059000000    -5.765000000
C    -2.397000000     6.571000000    -5.515000000
H    -2.590000000     7.151000000    -6.414000000
C    -3.361000000     5.915000000    -4.729000000
H    -4.408000000     5.968000000    -5.016000000
C    -2.934000000     5.300000000    -3.545000000
O    -3.788000000     4.967000000    -2.439000000
C    -3.959000000     3.660000000    -1.868000000
C    -4.566000000     3.574000000    -0.618000000
H    -4.877000000     4.450000000    -0.054000000
C    -4.713000000     2.331000000     0.008000000
O    -5.150000000     2.315000000     1.343000000
C    -6.053000000     1.406000000     1.882000000
C    -5.540000000     0.395000000     2.726000000
H    -4.460000000     0.324000000     2.825000000
C    -7.476000000     1.443000000     1.619000000
H    -7.888000000     2.183000000     0.938000000
C    -8.352000000     0.664000000     2.369000000
H    -9.422000000     0.853000000     2.364000000
C    -7.849000000    -0.264000000     3.296000000
H    -8.445000000    -0.900000000     3.946000000
C    -6.475000000    -0.462000000     3.342000000
O    -5.953000000    -1.419000000     4.226000000
C    -4.633000000    -1.758000000     4.261000000
C    -3.768000000    -1.391000000     5.327000000
H    -4.138000000    -0.721000000     6.100000000
C    -2.425000000    -1.756000000     5.361000000
O    -1.669000000    -1.433000000     6.471000000
C    -0.343000000    -1.625000000     6.461000000
C     0.559000000    -0.646000000     6.073000000
H     0.210000000     0.349000000     5.810000000
C     0.137000000    -2.943000000     6.784000000
H    -0.506000000    -3.779000000     7.049000000
C     1.527000000    -3.193000000     6.736000000
H     1.919000000    -4.181000000     6.963000000
C     2.404000000    -2.146000000     6.416000000
H     3.470000000    -2.355000000     6.452000000
C     1.937000000    -0.921000000     6.103000000
O     2.674000000     0.136000000     5.874000000
C     3.340000000     0.225000000     4.608000000
C     4.374000000     1.140000000     4.465000000
H     4.541000000     1.954000000     5.166000000
C     5.034000000     1.161000000     3.230000000
O     5.897000000     2.233000000     2.950000000
C     5.828000000     3.086000000     1.819000000
C     7.066000000     3.468000000     1.404000000
H     7.913000000     3.057000000     1.948000000
C     7.257000000     4.464000000     0.442000000
H     8.243000000     4.800000000     0.132000000
C     6.099000000     4.958000000    -0.196000000
H     6.111000000     5.669000000    -1.018000000
C     4.842000000     4.593000000     0.225000000
C     4.694000000     3.658000000     1.220000000
H     3.689000000     3.516000000     1.611000000
C    -0.988000000     0.673000000     1.981000000
H    -1.231000000     0.293000000     2.970000000
C    -0.480000000    -0.155000000     0.939000000
H    -0.223000000    -1.200000000     1.098000000
C    -0.178000000     0.391000000    -0.295000000
H     0.052000000    -0.275000000    -1.084000000
C    -0.428000000     1.725000000    -0.526000000
H    -0.220000000     2.134000000    -1.511000000
C    -1.053000000     2.462000000     0.443000000
H    -1.374000000     3.466000000     0.176000000
C    -1.313000000     1.993000000     1.721000000
C    -1.887000000     2.917000000     2.818000000
O    -2.321000000     4.032000000     2.610000000
O    -2.029000000     2.390000000     3.954000000
O    -1.800000000     6.121000000     7.665000000
H    -0.853000000     6.074000000     7.801000000
H    -2.165000000     6.203000000     8.546000000
O    -0.109000000     7.546000000     4.720000000
H    -0.408000000     6.694000000     5.037000000
H    -0.899000000     7.965000000     4.380000000
O    -4.475000000     2.602000000     4.816000000
H    -4.814000000     3.280000000     4.231000000
H    -3.541000000     2.557000000     4.615000000
O    -5.764000000     8.229000000     2.383000000
H    -5.817000000     7.305000000     2.628000000
H    -6.467000000     8.649000000     2.878000000
O    -7.535000000     2.678000000     5.506000000
H    -6.745000000     2.142000000     5.437000000
H    -7.239000000     3.488000000     5.920000000
O    -3.951000000     3.113000000     7.585000000
H    -3.735000000     4.012000000     7.833000000
H    -4.115000000     3.158000000     6.643000000
O    -1.315000000     7.827000000    -0.078000000
H    -1.088000000     8.668000000    -0.475000000
H    -2.264000000     7.761000000    -0.182000000
O    -1.271000000     2.735000000     6.779000000
H    -1.946000000     2.779000000     7.457000000
H    -1.753000000     2.547000000     5.974000000
O     1.291000000     3.155000000     7.392000000
H     1.278000000     3.949000000     7.926000000
H     0.368000000     2.970000000     7.217000000
O    -6.952000000     5.760000000     3.825000000
H    -6.723000000     6.078000000     4.699000000
H    -7.903000000     5.854000000     3.778000000
O     1.509000000     7.716000000     2.461000000
H     1.130000000     6.951000000     2.028000000
H     0.927000000     7.884000000     3.202000000
O    -4.002000000     7.334000000     0.124000000
H    -4.006000000     6.795000000     0.915000000
H    -4.725000000     7.949000000     0.249000000
O     2.856000000     4.898000000     3.980000000
H     2.229000000     4.604000000     3.319000000
H     2.749000000     4.281000000     4.703000000
O    -4.479000000     5.499000000     2.261000000
H    -3.820000000     4.806000000     2.311000000
H    -5.268000000     5.106000000     2.634000000
O    -3.499000000     6.393000000     5.176000000
H    -2.758000000     5.881000000     5.502000000
H    -3.714000000     5.992000000     4.334000000
O    -4.766000000     6.236000000     7.513000000
H    -4.298000000     6.494000000     8.307000000
H    -4.215000000     6.551000000     6.796000000
O    -0.398000000     5.923000000     1.591000000
H    -0.719000000     6.456000000     0.864000000
H    -1.167000000     5.439000000     1.891000000
O     1.357000000     3.712000000     2.138000000
H     0.832000000     4.458000000     1.850000000
H     0.910000000     2.949000000     1.772000000
O    -1.150000000     5.174000000     5.005000000
H    -0.594000000     4.486000000     5.370000000
H    -1.382000000     4.856000000     4.132000000
