215
-1468.72124
C    -5.178000000     0.744000000    -1.221000000
H    -5.207000000    -0.086000000    -0.520000000
C    -4.397000000     0.737000000    -2.340000000
C    -4.378000000     1.795000000    -3.259000000
H    -3.686000000     1.689000000    -4.091000000
C    -3.527000000    -0.505000000    -2.688000000
O    -4.151000000    -1.754000000    -2.304000000
H    -2.580000000    -0.353000000    -2.150000000
O    -3.220000000    -0.591000000    -4.088000000
C    -1.934000000    -0.964000000    -4.401000000
C    -1.089000000     0.004000000    -4.976000000
H    -1.462000000     1.020000000    -5.079000000
C     0.280000000    -0.207000000    -4.894000000
O     1.112000000     0.862000000    -4.796000000
C     0.761000000    -1.521000000    -4.708000000
C     2.185000000    -1.863000000    -4.660000000
H     2.220000000    -2.828000000    -5.168000000
C     2.767000000    -1.829000000    -3.239000000
C     2.983000000    -3.030000000    -2.479000000
H     2.496000000    -3.946000000    -2.802000000
H     2.780000000    -1.171000000    -5.260000000
C    -0.104000000    -2.565000000    -4.403000000
H     0.265000000    -3.569000000    -4.210000000
C    -1.441000000    -2.292000000    -4.182000000
C    -2.370000000    -3.452000000    -3.834000000
H    -2.040000000    -4.452000000    -4.122000000
H    -3.314000000    -3.275000000    -4.354000000
C    -2.556000000    -3.586000000    -2.313000000
C    -1.791000000    -4.448000000    -1.584000000
H    -1.036000000    -5.078000000    -2.048000000
C    -3.436000000    -2.705000000    -1.686000000
C    -3.476000000    -2.644000000    -0.280000000
H    -4.134000000    -1.953000000     0.241000000
C    -2.621000000    -3.465000000     0.479000000
O    -2.577000000    -3.322000000     1.853000000
C    -1.458000000    -2.611000000     2.475000000
C    -1.756000000    -1.629000000     3.619000000
C    -1.007000000    -1.446000000     4.735000000
H    -0.095000000    -2.009000000     4.914000000
C    -2.816000000    -0.732000000     3.383000000
H    -3.353000000    -0.811000000     2.441000000
O    -0.540000000    -3.625000000     2.910000000
H    -0.882000000    -2.065000000     1.713000000
C    -1.814000000    -4.375000000    -0.190000000
C    -0.917000000    -5.321000000     0.565000000
H    -0.807000000    -6.301000000     0.095000000
H    -1.464000000    -5.705000000     1.428000000
C     0.424000000    -4.743000000     1.004000000
C     1.513000000    -4.823000000     0.195000000
H     1.410000000    -5.275000000    -0.789000000
C     0.561000000    -4.045000000     2.241000000
C     1.715000000    -3.443000000     2.550000000
H     1.631000000    -2.819000000     3.436000000
C     2.860000000    -3.576000000     1.779000000
O     4.012000000    -2.943000000     2.111000000
C     4.071000000    -1.607000000     1.511000000
C     4.468000000    -0.502000000     2.471000000
C     4.011000000    -0.577000000     3.825000000
H     3.623000000    -1.547000000     4.124000000
C     5.056000000     0.718000000     1.981000000
H     5.678000000     0.702000000     1.090000000
O     4.967000000    -1.580000000     0.320000000
H     3.067000000    -1.307000000     1.174000000
C     2.778000000    -4.306000000     0.551000000
C     3.906000000    -4.224000000    -0.515000000
H     3.804000000    -5.110000000    -1.144000000
H     4.909000000    -4.206000000    -0.083000000
C     3.709000000    -2.960000000    -1.298000000
C     4.343000000    -1.751000000    -0.893000000
C     4.089000000    -0.593000000    -1.648000000
H     4.434000000     0.394000000    -1.351000000
C     3.385000000    -0.608000000    -2.798000000
O     3.169000000     0.552000000    -3.526000000
C     1.724000000     1.073000000    -3.474000000
H     1.194000000     0.492000000    -2.705000000
C     1.671000000     2.547000000    -3.056000000
C     0.608000000     3.372000000    -3.510000000
H     0.058000000     2.993000000    -4.368000000
C     2.492000000     3.051000000    -2.033000000
H     3.336000000     2.454000000    -1.696000000
C     2.315000000     4.355000000    -1.549000000
O     3.086000000     4.824000000    -0.551000000
C     1.350000000     5.181000000    -2.133000000
H     1.389000000     6.184000000    -1.716000000
C     0.472000000     4.665000000    -3.055000000
O    -0.473000000     5.532000000    -3.567000000
C    -1.582000000     5.125000000    -4.292000000
C    -2.764000000     4.768000000    -3.614000000
H    -2.868000000     4.972000000    -2.551000000
C    -1.455000000     4.977000000    -5.676000000
H    -0.602000000     5.310000000    -6.261000000
C    -2.512000000     4.534000000    -6.428000000
H    -2.492000000     4.459000000    -7.513000000
C    -3.767000000     4.285000000    -5.835000000
H    -4.565000000     3.964000000    -6.500000000
C    -3.876000000     4.442000000    -4.431000000
O    -5.071000000     4.052000000    -3.821000000
C    -5.132000000     2.931000000    -2.946000000
C    -5.903000000     2.993000000    -1.800000000
H    -6.471000000     3.893000000    -1.576000000
C    -5.940000000     1.858000000    -0.900000000
O    -6.822000000     1.862000000     0.152000000
C    -6.643000000     1.238000000     1.403000000
C    -5.434000000     1.341000000     2.031000000
H    -4.504000000     1.698000000     1.597000000
C    -7.745000000     0.718000000     2.107000000
H    -8.646000000     0.669000000     1.501000000
C    -7.693000000     0.423000000     3.438000000
H    -8.621000000     0.181000000     3.949000000
C    -6.467000000     0.503000000     4.060000000
H    -6.464000000     0.285000000     5.125000000
C    -5.333000000     0.959000000     3.383000000
O    -4.225000000     1.142000000     4.159000000
C    -3.179000000     0.241000000     4.353000000
C    -2.450000000     0.275000000     5.563000000
H    -2.716000000     1.029000000     6.300000000
C    -1.378000000    -0.558000000     5.750000000
O    -0.698000000    -0.487000000     6.917000000
C     0.653000000    -0.890000000     6.972000000
C     1.638000000    -0.121000000     6.336000000
H     1.373000000     0.734000000     5.719000000
C     0.976000000    -2.119000000     7.619000000
H     0.199000000    -2.614000000     8.197000000
C     2.324000000    -2.479000000     7.770000000
H     2.576000000    -3.292000000     8.446000000
C     3.284000000    -1.613000000     7.252000000
H     4.338000000    -1.871000000     7.324000000
C     2.952000000    -0.433000000     6.525000000
O     3.913000000     0.469000000     6.029000000
C     4.136000000     0.535000000     4.651000000
C     4.729000000     1.697000000     4.113000000
H     4.954000000     2.553000000     4.744000000
C     5.230000000     1.751000000     2.884000000
O     6.070000000     2.831000000     2.622000000
C     5.877000000     3.466000000     1.395000000
C     6.976000000     3.651000000     0.496000000
H     7.982000000     3.304000000     0.720000000
C     6.758000000     4.304000000    -0.756000000
H     7.562000000     4.536000000    -1.450000000
C     5.486000000     4.794000000    -1.041000000
H     5.304000000     5.311000000    -1.980000000
C     4.401000000     4.510000000    -0.218000000
C     4.610000000     3.911000000     0.991000000
H     3.729000000     3.690000000     1.589000000
C     0.126000000     1.769000000     2.159000000
H     0.248000000     2.005000000     3.212000000
C     0.943000000     0.873000000     1.522000000
H     1.806000000     0.428000000     2.010000000
C     0.617000000     0.542000000     0.180000000
H     1.237000000    -0.199000000    -0.403000000
C    -0.482000000     1.129000000    -0.465000000
H    -0.667000000     0.949000000    -1.521000000
C    -1.289000000     2.040000000     0.178000000
H    -2.100000000     2.511000000    -0.372000000
C    -0.987000000     2.401000000     1.475000000
C    -1.777000000     3.430000000     2.269000000
O    -2.969000000     3.654000000     2.093000000
O    -1.187000000     3.954000000     3.202000000
O    -4.971000000     4.108000000     3.764000000
H    -4.423000000     4.794000000     4.144000000
H    -4.381000000     3.620000000     3.189000000
O    -4.924000000     8.291000000     2.344000000
H    -4.834000000     7.352000000     2.186000000
H    -5.012000000     8.674000000     1.471000000
O    -7.257000000     3.609000000     5.620000000
H    -6.722000000     4.233000000     5.129000000
H    -6.626000000     3.109000000     6.138000000
O    -5.124000000     2.063000000     6.869000000
H    -4.420000000     2.536000000     7.313000000
H    -4.764000000     1.851000000     6.008000000
O    -0.244000000     3.222000000     5.635000000
H     0.023000000     2.473000000     5.102000000
H    -0.751000000     3.772000000     5.038000000
O    -2.218000000     8.331000000     3.522000000
H    -2.335000000     8.274000000     2.574000000
H    -3.070000000     8.614000000     3.852000000
O    -0.297000000     2.944000000     8.688000000
H    -0.155000000     3.885000000     8.791000000
H    -0.554000000     2.839000000     7.772000000
O    -7.014000000     4.255000000     2.101000000
H    -6.337000000     4.290000000     2.777000000
H    -7.075000000     3.327000000     1.872000000
O     0.229000000     8.668000000     3.958000000
H     0.320000000     9.543000000     3.581000000
H    -0.695000000     8.449000000     3.832000000
O     1.685000000     5.545000000     5.762000000
H     1.295000000     4.721000000     6.052000000
H     1.522000000     5.569000000     4.819000000
O    -4.036000000     5.878000000     1.311000000
H    -3.769000000     4.967000000     1.432000000
H    -3.249000000     6.387000000     1.509000000
O    -2.841000000     3.945000000     7.106000000
H    -2.150000000     4.429000000     7.560000000
H    -2.838000000     4.300000000     6.218000000
O    -1.866000000     8.064000000     0.857000000
H    -1.107000000     7.994000000     0.278000000
H    -2.595000000     8.273000000     0.274000000
O     2.256000000     8.237000000     2.153000000
H     2.286000000     9.171000000     1.945000000
H     1.636000000     8.173000000     2.879000000
O     1.130000000     5.443000000     3.090000000
H     1.461000000     5.639000000     2.213000000
H     0.274000000     5.042000000     2.938000000
O    -2.845000000     7.939000000     6.943000000
H    -2.396000000     7.224000000     6.492000000
H    -3.567000000     8.173000000     6.360000000
O    -4.766000000     8.389000000     5.129000000
H    -5.406000000     7.840000000     5.582000000
H    -4.872000000     8.167000000     4.204000000
O    -6.706000000     5.815000000    -0.029000000
H    -7.015000000     5.152000000     0.589000000
H    -5.833000000     6.048000000     0.286000000
O    -2.213000000     5.757000000     4.766000000
H    -1.872000000     5.120000000     4.138000000
H    -2.058000000     6.607000000     4.353000000
