215
-1422.91690
C    -5.546000000     0.593000000    -1.203000000
H    -5.633000000    -0.293000000    -0.579000000
C    -4.689000000     0.725000000    -2.279000000
C    -4.493000000     2.013000000    -2.848000000
H    -3.642000000     2.130000000    -3.514000000
C    -3.852000000    -0.459000000    -2.751000000
O    -4.316000000    -1.764000000    -2.481000000
H    -2.898000000    -0.278000000    -2.232000000
O    -3.307000000    -0.318000000    -4.131000000
C    -1.939000000    -0.672000000    -4.357000000
C    -1.021000000     0.377000000    -4.489000000
H    -1.421000000     1.376000000    -4.642000000
C     0.313000000     0.067000000    -4.672000000
O     1.214000000     1.105000000    -4.698000000
C     0.800000000    -1.218000000    -4.657000000
C     2.273000000    -1.526000000    -4.928000000
H     2.383000000    -2.489000000    -5.432000000
C     3.109000000    -1.531000000    -3.631000000
C     3.280000000    -2.726000000    -2.995000000
H     2.876000000    -3.610000000    -3.484000000
H     2.768000000    -0.810000000    -5.588000000
C    -0.090000000    -2.247000000    -4.508000000
H     0.268000000    -3.273000000    -4.511000000
C    -1.469000000    -1.990000000    -4.253000000
C    -2.366000000    -3.111000000    -4.132000000
H    -1.971000000    -3.956000000    -4.700000000
H    -3.327000000    -2.952000000    -4.625000000
C    -2.586000000    -3.461000000    -2.666000000
C    -1.869000000    -4.406000000    -2.047000000
H    -1.219000000    -5.055000000    -2.629000000
C    -3.452000000    -2.700000000    -1.936000000
C    -3.572000000    -2.869000000    -0.530000000
H    -4.272000000    -2.234000000     0.008000000
C    -2.844000000    -3.860000000     0.093000000
O    -2.754000000    -3.905000000     1.430000000
C    -1.565000000    -3.202000000     1.997000000
C    -1.937000000    -2.280000000     3.125000000
C    -1.442000000    -2.422000000     4.409000000
H    -0.783000000    -3.238000000     4.693000000
C    -2.757000000    -1.205000000     2.855000000
H    -3.123000000    -1.134000000     1.834000000
O    -0.575000000    -4.080000000     2.483000000
H    -1.170000000    -2.525000000     1.225000000
C    -1.892000000    -4.581000000    -0.670000000
C    -0.850000000    -5.506000000    -0.025000000
H    -0.495000000    -6.246000000    -0.745000000
H    -1.372000000    -6.076000000     0.747000000
C     0.447000000    -4.834000000     0.428000000
C     1.654000000    -4.928000000    -0.341000000
H     1.641000000    -5.354000000    -1.340000000
C     0.486000000    -4.202000000     1.655000000
C     1.676000000    -3.661000000     2.157000000
H     1.609000000    -3.266000000     3.167000000
C     2.813000000    -3.649000000     1.364000000
O     3.823000000    -2.894000000     1.853000000
C     3.876000000    -1.600000000     1.227000000
C     4.188000000    -0.527000000     2.237000000
C     3.409000000    -0.469000000     3.385000000
H     2.545000000    -1.109000000     3.546000000
C     5.180000000     0.467000000     2.068000000
H     5.876000000     0.450000000     1.233000000
O     4.892000000    -1.533000000     0.153000000
H     2.880000000    -1.375000000     0.818000000
C     2.702000000    -4.062000000     0.089000000
C     3.886000000    -4.026000000    -0.928000000
H     3.772000000    -4.879000000    -1.601000000
H     4.809000000    -4.124000000    -0.354000000
C     3.909000000    -2.741000000    -1.707000000
C     4.358000000    -1.566000000    -1.140000000
C     4.309000000    -0.358000000    -1.852000000
H     4.749000000     0.509000000    -1.367000000
C     3.683000000    -0.407000000    -3.112000000
O     3.383000000     0.827000000    -3.637000000
C     2.010000000     1.283000000    -3.494000000
H     1.511000000     0.634000000    -2.759000000
C     1.877000000     2.710000000    -2.893000000
C     0.702000000     3.406000000    -2.869000000
H    -0.177000000     2.946000000    -3.313000000
C     2.998000000     3.171000000    -2.148000000
H     3.967000000     2.678000000    -2.184000000
C     2.987000000     4.447000000    -1.466000000
O     4.062000000     4.946000000    -0.833000000
C     1.756000000     5.048000000    -1.384000000
H     1.808000000     6.001000000    -0.863000000
C     0.716000000     4.669000000    -2.223000000
O    -0.467000000     5.302000000    -1.959000000
C    -1.519000000     5.209000000    -2.848000000
C    -2.732000000     4.804000000    -2.372000000
H    -2.896000000     4.527000000    -1.334000000
C    -1.300000000     5.640000000    -4.166000000
H    -0.315000000     6.042000000    -4.389000000
C    -2.390000000     5.609000000    -5.052000000
H    -2.339000000     5.912000000    -6.095000000
C    -3.619000000     5.139000000    -4.634000000
H    -4.478000000     5.102000000    -5.298000000
C    -3.748000000     4.784000000    -3.277000000
O    -4.969000000     4.393000000    -2.821000000
C    -5.318000000     3.085000000    -2.419000000
C    -6.308000000     2.915000000    -1.508000000
H    -7.022000000     3.702000000    -1.284000000
C    -6.369000000     1.694000000    -0.845000000
O    -7.217000000     1.612000000     0.223000000
C    -6.827000000     0.964000000     1.404000000
C    -5.563000000     1.167000000     1.942000000
H    -4.780000000     1.683000000     1.391000000
C    -7.806000000     0.389000000     2.230000000
H    -8.793000000     0.377000000     1.774000000
C    -7.469000000    -0.247000000     3.435000000
H    -8.161000000    -0.843000000     4.024000000
C    -6.128000000    -0.127000000     3.870000000
H    -5.850000000    -0.583000000     4.816000000
C    -5.230000000     0.553000000     3.116000000
O    -3.931000000     0.776000000     3.524000000
C    -3.054000000    -0.208000000     3.794000000
C    -2.514000000    -0.343000000     5.041000000
H    -2.690000000     0.342000000     5.866000000
C    -1.770000000    -1.459000000     5.348000000
O    -1.162000000    -1.644000000     6.548000000
C     0.131000000    -1.275000000     6.806000000
C     0.807000000    -0.470000000     5.908000000
H     0.367000000    -0.086000000     4.991000000
C     0.772000000    -1.815000000     7.927000000
H     0.155000000    -2.441000000     8.567000000
C     1.985000000    -1.261000000     8.302000000
H     2.456000000    -1.562000000     9.234000000
C     2.679000000    -0.397000000     7.413000000
H     3.732000000    -0.136000000     7.482000000
C     2.096000000    -0.106000000     6.199000000
O     2.648000000     0.833000000     5.364000000
C     3.545000000     0.571000000     4.285000000
C     4.523000000     1.539000000     4.100000000
H     4.774000000     2.201000000     4.925000000
C     5.313000000     1.488000000     2.969000000
O     6.139000000     2.505000000     2.702000000
C     6.162000000     3.180000000     1.528000000
C     7.463000000     3.510000000     0.955000000
H     8.398000000     3.388000000     1.495000000
C     7.550000000     4.068000000    -0.361000000
H     8.498000000     4.367000000    -0.801000000
C     6.383000000     4.526000000    -0.955000000
H     6.375000000     5.067000000    -1.898000000
C     5.119000000     4.208000000    -0.375000000
C     5.065000000     3.642000000     0.885000000
H     4.103000000     3.435000000     1.347000000
C    -0.045000000     1.406000000     1.877000000
H     0.398000000     1.283000000     2.862000000
C     0.271000000     0.542000000     0.874000000
H     1.064000000    -0.182000000     1.046000000
C    -0.455000000     0.553000000    -0.326000000
H    -0.302000000    -0.148000000    -1.059000000
C    -1.460000000     1.508000000    -0.423000000
H    -2.036000000     1.454000000    -1.344000000
C    -1.844000000     2.265000000     0.661000000
H    -2.789000000     2.801000000     0.650000000
C    -1.137000000     2.182000000     1.809000000
C    -1.642000000     2.959000000     3.028000000
O    -2.495000000     3.730000000     2.883000000
O    -1.027000000     2.999000000     4.074000000
O    -4.869000000    -0.011000000     7.261000000
H    -4.549000000    -0.793000000     7.711000000
H    -4.299000000     0.693000000     7.572000000
O    -3.342000000     1.918000000     8.080000000
H    -3.428000000     2.532000000     7.351000000
H    -2.400000000     1.767000000     8.156000000
O     1.170000000     5.976000000     6.679000000
H     1.297000000     6.611000000     5.975000000
H     0.686000000     5.258000000     6.271000000
O    -4.990000000     3.665000000     3.808000000
H    -5.520000000     4.082000000     3.129000000
H    -4.181000000     3.415000000     3.360000000
O    -7.106000000     2.887000000     5.460000000
H    -6.477000000     3.034000000     4.753000000
H    -6.782000000     2.107000000     5.911000000
O    -5.463000000     4.628000000     7.843000000
H    -5.597000000     5.493000000     7.455000000
H    -5.053000000     4.114000000     7.148000000
O    -0.248000000     2.368000000     6.482000000
H     0.671000000     2.126000000     6.366000000
H    -0.561000000     2.551000000     5.596000000
O     1.515000000     5.389000000     2.283000000
H     2.155000000     5.894000000     1.782000000
H     0.717000000     5.424000000     1.755000000
O    -0.668000000     2.691000000     8.953000000
H    -0.547000000     2.527000000     8.018000000
H    -0.523000000     3.632000000     9.052000000
O    -6.032000000     4.281000000     1.209000000
H    -6.532000000     3.468000000     1.132000000
H    -6.697000000     4.969000000     1.238000000
O     1.052000000     7.352000000     4.147000000
H     1.441000000     8.219000000     4.038000000
H     1.250000000     6.895000000     3.330000000
O     1.576000000     4.080000000     4.544000000
H     0.771000000     3.600000000     4.348000000
H     1.781000000     4.545000000     3.733000000
O    -3.454000000     5.460000000     1.162000000
H    -4.368000000     5.186000000     1.085000000
H    -3.018000000     4.723000000     1.588000000
O    -3.282000000     3.551000000     5.946000000
H    -3.947000000     3.524000000     5.258000000
H    -2.459000000     3.698000000     5.479000000
O    -1.212000000     8.717000000     1.283000000
H    -0.838000000     7.836000000     1.290000000
H    -0.555000000     9.252000000     0.839000000
O    -0.653000000     6.042000000     0.698000000
H    -0.473000000     5.698000000    -0.177000000
H    -1.562000000     5.796000000     0.870000000
O    -3.241000000     7.459000000     6.558000000
H    -2.645000000     7.046000000     5.934000000
H    -4.115000000     7.250000000     6.230000000
O    -4.761000000     8.148000000     0.556000000
H    -4.085000000     7.672000000     1.039000000
H    -4.880000000     7.644000000    -0.249000000
O    -1.987000000     6.431000000     4.337000000
H    -2.148000000     5.625000000     3.845000000
H    -1.034000000     6.493000000     4.390000000
