215
-1439.26380
C    -4.953000000     0.884000000    -1.281000000
H    -4.870000000     0.024000000    -0.621000000
C    -4.173000000     0.903000000    -2.402000000
C    -4.213000000     2.041000000    -3.245000000
H    -3.685000000     2.074000000    -4.195000000
C    -3.300000000    -0.306000000    -2.807000000
O    -3.942000000    -1.572000000    -2.464000000
H    -2.343000000    -0.306000000    -2.264000000
O    -2.996000000    -0.269000000    -4.164000000
C    -1.745000000    -0.697000000    -4.519000000
C    -0.938000000     0.359000000    -4.762000000
H    -1.291000000     1.385000000    -4.820000000
C     0.458000000     0.096000000    -4.732000000
O     1.310000000     1.169000000    -4.605000000
C     0.946000000    -1.214000000    -4.729000000
C     2.512000000    -1.486000000    -4.746000000
H     2.743000000    -2.338000000    -5.388000000
C     3.130000000    -1.436000000    -3.368000000
C     3.220000000    -2.595000000    -2.575000000
H     2.797000000    -3.511000000    -2.980000000
H     2.959000000    -0.780000000    -5.449000000
C     0.071000000    -2.326000000    -4.575000000
H     0.444000000    -3.343000000    -4.484000000
C    -1.292000000    -2.042000000    -4.461000000
C    -2.279000000    -3.246000000    -4.141000000
H    -1.897000000    -4.141000000    -4.637000000
H    -3.295000000    -3.131000000    -4.523000000
C    -2.324000000    -3.405000000    -2.592000000
C    -1.555000000    -4.333000000    -1.973000000
H    -0.827000000    -4.887000000    -2.560000000
C    -3.141000000    -2.558000000    -1.850000000
C    -3.275000000    -2.756000000    -0.452000000
H    -3.786000000    -2.073000000     0.222000000
C    -2.511000000    -3.789000000     0.104000000
O    -2.592000000    -3.907000000     1.448000000
C    -1.516000000    -3.255000000     2.167000000
C    -2.039000000    -2.482000000     3.346000000
C    -1.264000000    -2.407000000     4.528000000
H    -0.484000000    -3.134000000     4.738000000
C    -2.981000000    -1.522000000     3.126000000
H    -3.474000000    -1.409000000     2.164000000
O    -0.535000000    -4.255000000     2.571000000
H    -1.080000000    -2.514000000     1.481000000
C    -1.615000000    -4.569000000    -0.599000000
C    -0.680000000    -5.547000000     0.051000000
H    -0.500000000    -6.343000000    -0.674000000
H    -1.290000000    -6.110000000     0.761000000
C     0.620000000    -4.948000000     0.587000000
C     1.793000000    -4.913000000    -0.229000000
H     1.679000000    -5.196000000    -1.272000000
C     0.664000000    -4.335000000     1.866000000
C     1.781000000    -3.769000000     2.348000000
H     1.786000000    -3.198000000     3.273000000
C     2.850000000    -3.620000000     1.459000000
O     3.895000000    -2.858000000     1.871000000
C     4.001000000    -1.406000000     1.438000000
C     4.123000000    -0.398000000     2.546000000
C     4.052000000    -0.796000000     3.901000000
H     4.183000000    -1.795000000     4.311000000
C     4.067000000     0.997000000     2.244000000
H     4.251000000     1.356000000     1.234000000
O     4.981000000    -1.278000000     0.412000000
H     3.041000000    -1.102000000     0.996000000
C     2.884000000    -4.172000000     0.168000000
C     4.056000000    -3.871000000    -0.681000000
H     4.072000000    -4.579000000    -1.513000000
H     4.952000000    -4.011000000    -0.073000000
C     3.892000000    -2.535000000    -1.360000000
C     4.409000000    -1.353000000    -0.876000000
C     4.309000000    -0.190000000    -1.576000000
H     4.804000000     0.726000000    -1.267000000
C     3.675000000    -0.238000000    -2.814000000
O     3.364000000     0.935000000    -3.406000000
C     1.994000000     1.417000000    -3.398000000
H     1.453000000     0.797000000    -2.668000000
C     1.895000000     2.897000000    -3.044000000
C     0.680000000     3.546000000    -3.088000000
H    -0.210000000     3.028000000    -3.435000000
C     2.918000000     3.533000000    -2.392000000
H     3.814000000     2.985000000    -2.111000000
C     2.749000000     4.758000000    -1.834000000
O     3.831000000     5.382000000    -1.239000000
C     1.562000000     5.497000000    -1.963000000
H     1.566000000     6.558000000    -1.726000000
C     0.497000000     4.825000000    -2.502000000
O    -0.632000000     5.576000000    -2.641000000
C    -1.632000000     5.455000000    -3.558000000
C    -2.875000000     4.918000000    -3.147000000
H    -3.023000000     4.686000000    -2.095000000
C    -1.615000000     6.051000000    -4.859000000
H    -0.725000000     6.580000000    -5.192000000
C    -2.681000000     5.976000000    -5.665000000
H    -2.603000000     6.322000000    -6.693000000
C    -3.836000000     5.417000000    -5.228000000
H    -4.684000000     5.471000000    -5.905000000
C    -3.952000000     4.833000000    -4.004000000
O    -5.138000000     4.313000000    -3.521000000
C    -5.074000000     3.088000000    -2.886000000
C    -5.869000000     3.044000000    -1.817000000
H    -6.345000000     3.923000000    -1.390000000
C    -5.802000000     1.927000000    -0.975000000
O    -6.619000000     1.855000000     0.108000000
C    -6.519000000     1.045000000     1.182000000
C    -5.345000000     0.826000000     1.958000000
H    -4.405000000     1.204000000     1.566000000
C    -7.672000000     0.504000000     1.641000000
H    -8.543000000     0.685000000     1.016000000
C    -7.778000000    -0.122000000     2.874000000
H    -8.711000000    -0.571000000     3.205000000
C    -6.657000000    -0.164000000     3.709000000
H    -6.662000000    -0.504000000     4.742000000
C    -5.385000000     0.275000000     3.243000000
O    -4.280000000     0.364000000     4.055000000
C    -3.388000000    -0.697000000     4.184000000
C    -2.666000000    -0.661000000     5.369000000
H    -2.994000000     0.017000000     6.154000000
C    -1.560000000    -1.464000000     5.574000000
O    -0.777000000    -1.444000000     6.716000000
C     0.532000000    -1.771000000     6.713000000
C     1.514000000    -0.839000000     6.257000000
H     1.176000000     0.172000000     6.044000000
C     0.929000000    -2.975000000     7.278000000
H     0.078000000    -3.577000000     7.587000000
C     2.271000000    -3.319000000     7.445000000
H     2.564000000    -4.237000000     7.948000000
C     3.218000000    -2.467000000     6.978000000
H     4.230000000    -2.731000000     7.275000000
C     2.853000000    -1.205000000     6.359000000
O     3.843000000    -0.293000000     6.188000000
C     3.946000000     0.193000000     4.887000000
C     4.030000000     1.506000000     4.599000000
H     3.883000000     2.189000000     5.433000000
C     4.084000000     1.914000000     3.297000000
O     4.247000000     3.250000000     3.038000000
C     4.765000000     3.624000000     1.826000000
C     6.160000000     3.784000000     1.783000000
H     6.671000000     3.508000000     2.701000000
C     6.727000000     4.455000000     0.744000000
H     7.789000000     4.684000000     0.777000000
C     6.036000000     4.999000000    -0.314000000
H     6.484000000     5.544000000    -1.140000000
C     4.622000000     4.842000000    -0.297000000
C     3.982000000     4.221000000     0.795000000
H     2.902000000     4.141000000     0.893000000
C    -0.396000000     0.799000000     2.497000000
H    -0.406000000     0.750000000     3.583000000
C     0.447000000    -0.110000000     1.876000000
H     1.150000000    -0.715000000     2.442000000
C     0.412000000    -0.192000000     0.529000000
H     1.149000000    -0.907000000     0.099000000
C    -0.537000000     0.572000000    -0.226000000
H    -0.560000000     0.401000000    -1.299000000
C    -1.324000000     1.509000000     0.458000000
H    -1.959000000     2.198000000    -0.093000000
C    -1.222000000     1.683000000     1.824000000
C    -1.918000000     2.768000000     2.591000000
O    -2.528000000     3.596000000     1.962000000
O    -1.616000000     3.054000000     3.732000000
O    -3.032000000     0.654000000     8.343000000
H    -2.806000000     1.234000000     9.071000000
H    -2.479000000     0.951000000     7.621000000
O    -1.354000000     5.359000000     5.235000000
H    -1.005000000     6.126000000     4.782000000
H    -1.235000000     4.640000000     4.615000000
O    -2.863000000     2.472000000     6.026000000
H    -3.582000000     2.061000000     5.545000000
H    -2.373000000     2.952000000     5.359000000
O    -5.225000000     7.827000000     2.343000000
H    -6.120000000     7.516000000     2.473000000
H    -4.674000000     7.112000000     2.661000000
O    -6.467000000     2.804000000     5.950000000
H    -5.967000000     3.063000000     5.176000000
H    -5.821000000     2.785000000     6.656000000
O     0.370000000     2.731000000     5.617000000
H     1.059000000     3.044000000     5.032000000
H    -0.385000000     2.592000000     5.045000000
O    -1.889000000     9.936000000     1.919000000
H    -1.168000000    10.265000000     1.383000000
H    -2.017000000     9.035000000     1.622000000
O     0.531000000     5.540000000     0.892000000
H     0.828000000     6.446000000     0.806000000
H     0.429000000     5.235000000    -0.009000000
O     2.346000000     2.789000000     7.787000000
H     1.467000000     2.804000000     7.407000000
H     2.387000000     1.959000000     8.262000000
O    -0.081000000     6.218000000     7.681000000
H     0.871000000     6.282000000     7.600000000
H    -0.354000000     5.727000000     6.906000000
O    -0.330000000     6.800000000     3.157000000
H    -0.482000000     6.484000000     2.266000000
H     0.290000000     7.521000000     3.053000000
O     1.221000000     3.637000000     2.612000000
H     0.508000000     3.003000000     2.686000000
H     0.865000000     4.336000000     2.064000000
O    -4.455000000     5.062000000     0.585000000
H    -5.246000000     4.709000000     0.992000000
H    -3.744000000     4.532000000     0.944000000
O    -2.934000000     4.573000000     7.853000000
H    -2.832000000     3.624000000     7.932000000
H    -2.378000000     4.813000000     7.112000000
O    -2.567000000     8.848000000    -1.262000000
H    -2.492000000     8.016000000    -0.794000000
H    -3.135000000     8.653000000    -2.007000000
O     3.011000000     6.163000000     4.597000000
H     2.281000000     5.668000000     4.225000000
H     2.598000000     6.911000000     5.028000000
O    -2.254000000     6.833000000     0.492000000
H    -1.499000000     6.269000000     0.323000000
H    -2.900000000     6.253000000     0.894000000
O    -5.331000000     7.181000000    -1.209000000
H    -5.317000000     6.247000000    -0.997000000
H    -5.197000000     7.619000000    -0.368000000
O    -3.891000000     5.373000000     3.585000000
H    -3.451000000     4.675000000     3.098000000
H    -3.443000000     5.395000000     4.430000000
