215
-1475.34302
C    -5.178000000     1.075000000    -1.161000000
H    -5.326000000     0.137000000    -0.632000000
C    -4.334000000     1.091000000    -2.297000000
C    -4.021000000     2.230000000    -2.997000000
H    -3.321000000     2.180000000    -3.827000000
C    -3.605000000    -0.190000000    -2.749000000
O    -4.474000000    -1.387000000    -2.558000000
H    -2.634000000    -0.353000000    -2.257000000
O    -3.201000000    -0.213000000    -4.085000000
C    -1.900000000    -0.594000000    -4.321000000
C    -0.873000000     0.367000000    -4.398000000
H    -0.985000000     1.432000000    -4.212000000
C     0.457000000     0.015000000    -4.476000000
O     1.355000000     0.999000000    -4.401000000
C     0.797000000    -1.372000000    -4.536000000
C     2.241000000    -1.818000000    -4.754000000
H     2.359000000    -2.737000000    -5.332000000
C     3.114000000    -1.822000000    -3.468000000
C     3.230000000    -3.004000000    -2.710000000
H     2.783000000    -3.926000000    -3.072000000
H     2.726000000    -1.125000000    -5.444000000
C    -0.232000000    -2.351000000    -4.488000000
H     0.065000000    -3.396000000    -4.537000000
C    -1.555000000    -1.964000000    -4.354000000
C    -2.645000000    -3.034000000    -4.214000000
H    -2.491000000    -3.980000000    -4.738000000
H    -3.594000000    -2.647000000    -4.591000000
C    -2.839000000    -3.224000000    -2.751000000
C    -2.069000000    -4.111000000    -2.010000000
H    -1.387000000    -4.775000000    -2.536000000
C    -3.880000000    -2.512000000    -2.092000000
C    -3.925000000    -2.615000000    -0.724000000
H    -4.562000000    -1.850000000    -0.287000000
C    -3.124000000    -3.461000000     0.017000000
O    -3.238000000    -3.319000000     1.388000000
C    -2.058000000    -2.657000000     2.005000000
C    -2.601000000    -1.775000000     3.175000000
C    -1.748000000    -1.516000000     4.267000000
H    -0.713000000    -1.839000000     4.183000000
C    -3.845000000    -1.159000000     3.117000000
H    -4.520000000    -1.322000000     2.281000000
O    -1.214000000    -3.638000000     2.587000000
H    -1.550000000    -2.025000000     1.262000000
C    -2.269000000    -4.260000000    -0.614000000
C    -1.379000000    -5.195000000     0.206000000
H    -1.133000000    -6.146000000    -0.272000000
H    -1.974000000    -5.445000000     1.087000000
C    -0.078000000    -4.532000000     0.664000000
C     1.118000000    -4.633000000    -0.092000000
H     1.145000000    -5.045000000    -1.097000000
C    -0.024000000    -3.874000000     1.896000000
C     1.160000000    -3.373000000     2.398000000
H     1.285000000    -2.777000000     3.299000000
C     2.320000000    -3.450000000     1.624000000
O     3.482000000    -2.834000000     2.063000000
C     3.649000000    -1.494000000     1.565000000
C     4.225000000    -0.582000000     2.597000000
C     3.604000000    -0.541000000     3.861000000
H     2.748000000    -1.165000000     4.101000000
C     5.325000000     0.271000000     2.307000000
H     5.699000000     0.316000000     1.288000000
O     4.571000000    -1.626000000     0.424000000
H     2.723000000    -1.032000000     1.192000000
C     2.323000000    -4.126000000     0.403000000
C     3.563000000    -4.127000000    -0.516000000
H     3.618000000    -5.021000000    -1.140000000
H     4.461000000    -4.185000000     0.104000000
C     3.589000000    -2.903000000    -1.384000000
C     4.148000000    -1.747000000    -0.867000000
C     4.181000000    -0.623000000    -1.681000000
H     4.550000000     0.314000000    -1.271000000
C     3.645000000    -0.631000000    -2.933000000
O     3.412000000     0.519000000    -3.567000000
C     2.188000000     1.150000000    -3.281000000
H     1.717000000     0.679000000    -2.406000000
C     2.391000000     2.605000000    -2.783000000
C     1.194000000     3.426000000    -2.756000000
H     0.277000000     3.190000000    -3.290000000
C     3.553000000     2.976000000    -2.127000000
H     4.477000000     2.404000000    -2.131000000
C     3.548000000     4.127000000    -1.368000000
O     4.611000000     4.610000000    -0.634000000
C     2.415000000     4.918000000    -1.308000000
H     2.479000000     5.916000000    -0.882000000
C     1.257000000     4.578000000    -1.995000000
O     0.183000000     5.433000000    -1.829000000
C    -0.794000000     5.441000000    -2.832000000
C    -2.123000000     4.998000000    -2.562000000
H    -2.511000000     4.723000000    -1.584000000
C    -0.489000000     5.944000000    -4.077000000
H     0.532000000     6.260000000    -4.275000000
C    -1.445000000     5.923000000    -5.115000000
H    -1.229000000     6.313000000    -6.106000000
C    -2.770000000     5.476000000    -4.834000000
H    -3.558000000     5.619000000    -5.569000000
C    -3.078000000     4.992000000    -3.602000000
O    -4.391000000     4.601000000    -3.284000000
C    -4.683000000     3.381000000    -2.601000000
C    -5.694000000     3.396000000    -1.657000000
H    -6.232000000     4.320000000    -1.456000000
C    -5.843000000     2.283000000    -0.830000000
O    -6.858000000     2.241000000     0.103000000
C    -6.999000000     1.245000000     1.005000000
C    -6.233000000     1.340000000     2.150000000
H    -5.509000000     2.145000000     2.248000000
C    -7.777000000     0.103000000     0.786000000
H    -8.248000000    -0.009000000    -0.187000000
C    -7.900000000    -0.867000000     1.779000000
H    -8.545000000    -1.718000000     1.574000000
C    -7.142000000    -0.714000000     2.894000000
H    -7.305000000    -1.479000000     3.650000000
C    -6.399000000     0.353000000     3.130000000
O    -5.469000000     0.419000000     4.148000000
C    -4.238000000    -0.251000000     4.169000000
C    -3.291000000    -0.044000000     5.201000000
H    -3.507000000     0.652000000     6.008000000
C    -2.136000000    -0.747000000     5.278000000
O    -1.258000000    -0.324000000     6.244000000
C    -0.012000000    -0.819000000     6.450000000
C     1.036000000     0.057000000     6.130000000
H     0.848000000     0.978000000     5.585000000
C     0.262000000    -2.109000000     6.984000000
H    -0.464000000    -2.852000000     7.305000000
C     1.556000000    -2.317000000     7.424000000
H     1.792000000    -3.260000000     7.911000000
C     2.620000000    -1.455000000     7.110000000
H     3.648000000    -1.779000000     7.250000000
C     2.366000000    -0.347000000     6.308000000
O     3.373000000     0.500000000     5.940000000
C     4.036000000     0.390000000     4.795000000
C     5.167000000     1.206000000     4.485000000
H     5.544000000     1.900000000     5.232000000
C     5.710000000     1.175000000     3.230000000
O     6.597000000     2.136000000     2.933000000
C     6.701000000     2.717000000     1.713000000
C     7.823000000     2.636000000     0.935000000
H     8.709000000     2.160000000     1.348000000
C     7.923000000     3.301000000    -0.286000000
H     8.858000000     3.256000000    -0.840000000
C     6.831000000     3.859000000    -0.849000000
H     6.796000000     4.300000000    -1.842000000
C     5.675000000     3.900000000    -0.146000000
C     5.621000000     3.286000000     1.177000000
H     4.683000000     3.268000000     1.725000000
C    -0.520000000     1.421000000     2.617000000
H    -0.464000000     1.389000000     3.702000000
C     0.216000000     0.679000000     1.747000000
H     1.015000000     0.029000000     2.095000000
C     0.094000000     0.834000000     0.386000000
H     0.643000000     0.187000000    -0.262000000
C    -0.670000000     1.872000000    -0.104000000
H    -0.738000000     2.081000000    -1.168000000
C    -1.425000000     2.745000000     0.707000000
H    -1.921000000     3.613000000     0.280000000
C    -1.298000000     2.500000000     2.091000000
C    -2.091000000     3.402000000     2.987000000
O    -3.077000000     4.085000000     2.712000000
O    -1.574000000     3.503000000     4.078000000
O    -1.958000000     5.596000000     5.461000000
H    -1.307000000     6.182000000     5.074000000
H    -1.894000000     4.793000000     4.944000000
O    -6.102000000     7.091000000     5.144000000
H    -5.718000000     6.214000000     5.136000000
H    -6.204000000     7.316000000     4.219000000
O    -6.967000000     2.988000000     5.061000000
H    -7.066000000     2.683000000     4.159000000
H    -6.260000000     3.632000000     5.019000000
O    -4.334000000     3.099000000     7.654000000
H    -3.747000000     3.837000000     7.815000000
H    -4.590000000     3.192000000     6.737000000
O     1.349000000     3.596000000     4.299000000
H     1.689000000     3.332000000     3.443000000
H     0.407000000     3.692000000     4.162000000
O     0.411000000     5.944000000     1.392000000
H     1.143000000     6.488000000     1.102000000
H    -0.297000000     6.151000000     0.782000000
O     1.631000000     3.058000000     7.542000000
H     1.987000000     3.119000000     6.655000000
H     0.702000000     2.865000000     7.414000000
O    -7.339000000     4.853000000     2.728000000
H    -7.849000000     4.399000000     2.056000000
H    -7.992000000     5.154000000     3.360000000
O     0.181000000     6.593000000     4.092000000
H     0.415000000     6.627000000     3.164000000
H     1.020000000     6.628000000     4.552000000
O    -4.940000000     7.914000000     2.488000000
H    -3.992000000     8.003000000     2.586000000
H    -5.050000000     7.180000000     1.883000000
O     1.867000000     3.745000000     1.572000000
H     1.496000000     3.029000000     1.056000000
H     1.401000000     4.525000000     1.269000000
O    -5.063000000     5.654000000     1.168000000
H    -5.965000000     5.569000000     1.476000000
H    -4.556000000     5.094000000     1.755000000
O    -1.080000000     2.892000000     6.820000000
H    -1.133000000     3.542000000     6.119000000
H    -1.859000000     2.349000000     6.702000000
O    -2.380000000     6.948000000    -0.214000000
H    -2.186000000     7.092000000     0.712000000
H    -3.050000000     6.265000000    -0.215000000
O    -3.118000000     5.600000000     7.950000000
H    -3.826000000     6.199000000     7.712000000
H    -2.458000000     5.727000000     7.268000000
O     2.632000000     5.992000000     5.219000000
H     2.171000000     5.175000000     5.031000000
H     2.857000000     5.932000000     6.147000000
O    -2.390000000     6.571000000     2.573000000
H    -1.516000000     6.649000000     2.953000000
H    -2.676000000     5.688000000     2.808000000
O    -5.901000000     7.231000000    -0.834000000
H    -5.323000000     6.702000000    -0.283000000
H    -6.301000000     7.857000000    -0.230000000
O    -4.487000000     4.706000000     4.889000000
H    -4.120000000     4.291000000     4.109000000
H    -3.731000000     5.092000000     5.333000000
