215
-1486.85621
C    -4.608000000     1.464000000    -1.317000000
H    -4.518000000     0.729000000    -0.522000000
C    -3.963000000     1.274000000    -2.522000000
C    -3.921000000     2.338000000    -3.429000000
H    -3.536000000     2.241000000    -4.441000000
C    -3.266000000    -0.035000000    -2.745000000
O    -4.118000000    -1.202000000    -2.418000000
H    -2.365000000    -0.039000000    -2.113000000
O    -2.870000000    -0.240000000    -4.098000000
C    -1.603000000    -0.685000000    -4.336000000
C    -0.621000000     0.283000000    -4.584000000
H    -0.932000000     1.324000000    -4.559000000
C     0.701000000    -0.164000000    -4.711000000
O     1.684000000     0.895000000    -4.744000000
C     1.004000000    -1.563000000    -4.626000000
C     2.504000000    -2.024000000    -4.710000000
H     2.718000000    -2.933000000    -5.275000000
C     3.140000000    -1.994000000    -3.311000000
C     2.958000000    -3.160000000    -2.485000000
H     2.422000000    -4.008000000    -2.905000000
H     3.095000000    -1.338000000    -5.320000000
C    -0.045000000    -2.516000000    -4.376000000
H     0.217000000    -3.570000000    -4.341000000
C    -1.361000000    -2.039000000    -4.192000000
C    -2.437000000    -3.054000000    -3.924000000
H    -2.161000000    -4.033000000    -4.320000000
H    -3.371000000    -2.833000000    -4.443000000
C    -2.664000000    -3.134000000    -2.422000000
C    -2.125000000    -4.205000000    -1.699000000
H    -1.507000000    -4.923000000    -2.231000000
C    -3.489000000    -2.202000000    -1.729000000
C    -3.750000000    -2.382000000    -0.411000000
H    -4.430000000    -1.660000000     0.035000000
C    -3.099000000    -3.321000000     0.407000000
O    -3.350000000    -3.237000000     1.783000000
C    -2.207000000    -2.745000000     2.553000000
C    -2.686000000    -1.825000000     3.688000000
C    -1.961000000    -1.706000000     4.842000000
H    -1.033000000    -2.257000000     4.976000000
C    -3.889000000    -1.122000000     3.543000000
H    -4.506000000    -1.298000000     2.665000000
O    -1.421000000    -3.886000000     2.968000000
H    -1.643000000    -2.003000000     1.968000000
C    -2.344000000    -4.358000000    -0.294000000
C    -1.621000000    -5.404000000     0.427000000
H    -1.452000000    -6.251000000    -0.242000000
H    -2.120000000    -5.712000000     1.348000000
C    -0.279000000    -4.863000000     1.019000000
C     0.886000000    -4.898000000     0.233000000
H     0.899000000    -5.462000000    -0.696000000
C    -0.242000000    -4.076000000     2.183000000
C     0.930000000    -3.409000000     2.620000000
H     0.896000000    -2.879000000     3.568000000
C     2.074000000    -3.486000000     1.880000000
O     3.244000000    -2.787000000     2.279000000
C     3.439000000    -1.587000000     1.586000000
C     3.875000000    -0.559000000     2.633000000
C     3.365000000    -0.669000000     3.921000000
H     2.717000000    -1.505000000     4.173000000
C     4.624000000     0.549000000     2.270000000
H     4.990000000     0.672000000     1.254000000
O     4.470000000    -1.773000000     0.618000000
H     2.537000000    -1.221000000     1.075000000
C     2.072000000    -4.256000000     0.665000000
C     3.270000000    -4.343000000    -0.270000000
H     3.322000000    -5.198000000    -0.948000000
H     4.209000000    -4.396000000     0.284000000
C     3.435000000    -3.131000000    -1.146000000
C     4.052000000    -1.974000000    -0.706000000
C     4.276000000    -0.915000000    -1.529000000
H     4.814000000    -0.012000000    -1.252000000
C     3.674000000    -0.828000000    -2.788000000
O     3.621000000     0.316000000    -3.487000000
C     2.376000000     1.056000000    -3.449000000
H     1.766000000     0.593000000    -2.659000000
C     2.611000000     2.525000000    -3.093000000
C     1.496000000     3.281000000    -3.044000000
H     0.539000000     2.869000000    -3.353000000
C     3.745000000     2.968000000    -2.482000000
H     4.600000000     2.310000000    -2.344000000
C     3.757000000     4.261000000    -1.970000000
O     4.765000000     4.669000000    -1.215000000
C     2.689000000     5.127000000    -2.127000000
H     2.711000000     6.118000000    -1.680000000
C     1.494000000     4.579000000    -2.603000000
O     0.339000000     5.348000000    -2.661000000
C    -0.726000000     5.408000000    -3.593000000
C    -2.034000000     5.132000000    -3.229000000
H    -2.212000000     4.749000000    -2.227000000
C    -0.472000000     6.049000000    -4.857000000
H     0.545000000     6.407000000    -5.000000000
C    -1.510000000     6.225000000    -5.737000000
H    -1.318000000     6.620000000    -6.732000000
C    -2.804000000     5.731000000    -5.427000000
H    -3.564000000     5.762000000    -6.204000000
C    -3.036000000     5.173000000    -4.178000000
O    -4.345000000     4.703000000    -3.905000000
C    -4.557000000     3.569000000    -3.165000000
C    -5.404000000     3.652000000    -2.068000000
H    -5.925000000     4.575000000    -1.825000000
C    -5.380000000     2.621000000    -1.151000000
O    -6.051000000     2.802000000    -0.006000000
C    -6.306000000     1.767000000     0.932000000
C    -5.715000000     1.806000000     2.237000000
H    -4.884000000     2.447000000     2.517000000
C    -7.171000000     0.712000000     0.606000000
H    -7.772000000     0.731000000    -0.299000000
C    -7.474000000    -0.249000000     1.528000000
H    -8.124000000    -1.051000000     1.188000000
C    -7.026000000    -0.224000000     2.821000000
H    -7.280000000    -1.063000000     3.464000000
C    -6.061000000     0.772000000     3.169000000
O    -5.416000000     0.609000000     4.368000000
C    -4.278000000    -0.162000000     4.470000000
C    -3.408000000     0.020000000     5.542000000
H    -3.636000000     0.875000000     6.174000000
C    -2.268000000    -0.688000000     5.811000000
O    -1.531000000    -0.474000000     6.954000000
C    -0.214000000    -0.877000000     6.939000000
C     0.817000000    -0.072000000     6.420000000
H     0.612000000     0.941000000     6.084000000
C     0.089000000    -2.138000000     7.466000000
H    -0.760000000    -2.774000000     7.704000000
C     1.400000000    -2.455000000     7.673000000
H     1.680000000    -3.415000000     8.100000000
C     2.432000000    -1.607000000     7.199000000
H     3.462000000    -1.878000000     7.413000000
C     2.135000000    -0.485000000     6.484000000
O     3.231000000     0.210000000     6.153000000
C     3.648000000     0.350000000     4.854000000
C     4.603000000     1.319000000     4.545000000
H     4.999000000     1.923000000     5.358000000
C     5.024000000     1.489000000     3.231000000
O     5.820000000     2.599000000     2.876000000
C     6.203000000     2.828000000     1.589000000
C     7.380000000     2.332000000     1.007000000
H     8.078000000     1.729000000     1.582000000
C     7.587000000     2.469000000    -0.407000000
H     8.408000000     1.933000000    -0.876000000
C     6.674000000     3.166000000    -1.183000000
H     6.910000000     3.375000000    -2.223000000
C     5.581000000     3.779000000    -0.527000000
C     5.356000000     3.632000000     0.829000000
H     4.531000000     4.111000000     1.350000000
C    -0.746000000     1.048000000     2.567000000
H    -0.561000000     0.885000000     3.626000000
C    -0.263000000     0.111000000     1.614000000
H     0.249000000    -0.793000000     1.935000000
C    -0.461000000     0.326000000     0.267000000
H    -0.205000000    -0.321000000    -0.589000000
C    -1.132000000     1.491000000    -0.151000000
H    -1.108000000     1.668000000    -1.224000000
C    -1.604000000     2.377000000     0.758000000
H    -2.107000000     3.260000000     0.372000000
C    -1.407000000     2.204000000     2.127000000
C    -2.049000000     3.218000000     3.051000000
O    -2.830000000     4.043000000     2.578000000
O    -1.415000000     3.475000000     4.085000000
O    -1.647000000     2.623000000     8.332000000
H    -2.479000000     2.589000000     7.860000000
H    -1.142000000     1.889000000     7.983000000
O    -1.081000000     5.673000000     5.243000000
H    -0.238000000     5.925000000     4.865000000
H    -1.291000000     4.838000000     4.823000000
O    -8.077000000     2.708000000     5.464000000
H    -7.733000000     3.263000000     4.764000000
H    -8.256000000     1.870000000     5.039000000
O    -5.836000000     2.800000000     7.408000000
H    -6.562000000     2.809000000     6.784000000
H    -5.108000000     3.202000000     6.935000000
O     1.132000000     2.879000000     4.497000000
H     1.556000000     3.059000000     3.658000000
H     0.229000000     3.173000000     4.376000000
O     0.214000000     5.124000000     0.555000000
H    -0.119000000     5.756000000    -0.082000000
H     1.115000000     5.401000000     0.719000000
O     1.551000000     4.238000000     7.072000000
H     1.341000000     3.573000000     6.416000000
H     0.750000000     4.327000000     7.588000000
O    -7.505000000     4.358000000     3.396000000
H    -7.587000000     4.525000000     2.457000000
H    -7.661000000     5.209000000     3.805000000
O     0.806000000     7.128000000     3.763000000
H     1.541000000     6.792000000     3.250000000
H     0.960000000     8.071000000     3.813000000
O    -3.765000000     7.914000000     1.673000000
H    -2.973000000     7.386000000     1.768000000
H    -4.332000000     7.395000000     1.103000000
O     1.897000000     3.320000000     1.640000000
H     1.599000000     2.452000000     1.371000000
H     1.140000000     3.889000000     1.495000000
O    -4.277000000     5.269000000     0.583000000
H    -5.074000000     4.754000000     0.710000000
H    -3.598000000     4.778000000     1.046000000
O    -3.114000000     3.488000000     6.284000000
H    -3.799000000     4.119000000     6.062000000
H    -2.724000000     3.251000000     5.443000000
O    -0.510000000     7.910000000     0.067000000
H    -0.801000000     8.818000000    -0.014000000
H    -1.116000000     7.520000000     0.697000000
O    -1.456000000     5.782000000     7.854000000
H    -1.208000000     5.768000000     6.929000000
H    -2.013000000     5.011000000     7.964000000
O    -1.454000000     6.489000000     2.222000000
H    -0.550000000     6.615000000     2.511000000
H    -1.716000000     5.655000000     2.612000000
O    -2.248000000     9.227000000     3.977000000
H    -2.032000000     8.459000000     3.448000000
H    -2.743000000     8.877000000     4.717000000
O    -2.794000000     8.283000000     6.493000000
H    -2.253000000     7.494000000     6.445000000
H    -3.648000000     7.970000000     6.790000000
O    -4.687000000     4.448000000     4.491000000
H    -3.915000000     4.599000000     3.945000000
H    -5.407000000     4.352000000     3.868000000
