215
-1477.88719
C    -5.175000000     0.950000000    -1.530000000
H    -5.565000000     0.033000000    -1.095000000
C    -4.028000000     0.873000000    -2.338000000
C    -3.692000000     2.026000000    -3.045000000
H    -2.879000000     1.990000000    -3.766000000
C    -3.304000000    -0.462000000    -2.608000000
O    -4.251000000    -1.584000000    -2.596000000
H    -2.533000000    -0.643000000    -1.845000000
O    -2.737000000    -0.499000000    -3.952000000
C    -1.443000000    -0.869000000    -4.177000000
C    -0.498000000     0.145000000    -4.239000000
H    -0.688000000     1.215000000    -4.219000000
C     0.866000000    -0.237000000    -4.355000000
O     1.818000000     0.754000000    -4.415000000
C     1.203000000    -1.607000000    -4.289000000
C     2.665000000    -2.052000000    -4.281000000
H     2.783000000    -3.111000000    -4.518000000
C     3.282000000    -1.953000000    -2.908000000
C     3.305000000    -3.052000000    -2.001000000
H     2.879000000    -3.990000000    -2.346000000
H     3.159000000    -1.398000000    -5.003000000
C     0.257000000    -2.590000000    -4.144000000
H     0.611000000    -3.616000000    -4.090000000
C    -1.107000000    -2.232000000    -4.074000000
C    -2.216000000    -3.308000000    -3.872000000
H    -1.790000000    -4.196000000    -4.344000000
H    -3.080000000    -3.021000000    -4.476000000
C    -2.658000000    -3.487000000    -2.482000000
C    -1.819000000    -4.274000000    -1.701000000
H    -1.010000000    -4.819000000    -2.180000000
C    -3.622000000    -2.652000000    -1.959000000
C    -3.848000000    -2.660000000    -0.555000000
H    -4.601000000    -2.032000000    -0.087000000
C    -3.080000000    -3.532000000     0.252000000
O    -3.205000000    -3.305000000     1.589000000
C    -2.094000000    -2.679000000     2.262000000
C    -2.643000000    -1.821000000     3.432000000
C    -1.931000000    -1.728000000     4.632000000
H    -1.091000000    -2.385000000     4.843000000
C    -3.787000000    -0.990000000     3.210000000
H    -4.242000000    -0.909000000     2.226000000
O    -1.248000000    -3.731000000     2.874000000
H    -1.461000000    -2.080000000     1.592000000
C    -2.040000000    -4.364000000    -0.281000000
C    -1.174000000    -5.304000000     0.507000000
H    -0.854000000    -6.111000000    -0.156000000
H    -1.770000000    -5.834000000     1.253000000
C     0.063000000    -4.731000000     1.175000000
C     1.332000000    -4.897000000     0.584000000
H     1.419000000    -5.391000000    -0.380000000
C    -0.055000000    -3.870000000     2.274000000
C     1.043000000    -3.221000000     2.780000000
H     0.998000000    -2.613000000     3.680000000
C     2.265000000    -3.346000000     2.180000000
O     3.341000000    -2.516000000     2.563000000
C     3.564000000    -1.315000000     1.814000000
C     3.890000000    -0.238000000     2.853000000
C     3.323000000    -0.188000000     4.143000000
H     2.621000000    -0.973000000     4.413000000
C     4.588000000     0.880000000     2.420000000
H     5.020000000     0.921000000     1.423000000
O     4.724000000    -1.487000000     0.954000000
H     2.694000000    -0.920000000     1.269000000
C     2.431000000    -4.151000000     1.045000000
C     3.747000000    -4.135000000     0.294000000
H     3.811000000    -5.118000000    -0.177000000
H     4.576000000    -4.016000000     0.995000000
C     3.874000000    -2.985000000    -0.738000000
C     4.481000000    -1.791000000    -0.379000000
C     4.428000000    -0.726000000    -1.221000000
H     4.860000000     0.211000000    -0.879000000
C     3.797000000    -0.782000000    -2.418000000
O     3.769000000     0.329000000    -3.216000000
C     2.481000000     1.037000000    -3.201000000
H     1.766000000     0.745000000    -2.417000000
C     2.616000000     2.494000000    -3.162000000
C     1.595000000     3.390000000    -3.699000000
H     0.797000000     2.894000000    -4.246000000
C     3.640000000     3.083000000    -2.432000000
H     4.528000000     2.496000000    -2.211000000
C     3.627000000     4.477000000    -2.203000000
O     4.646000000     5.048000000    -1.398000000
C     2.635000000     5.335000000    -2.714000000
H     2.706000000     6.403000000    -2.524000000
C     1.609000000     4.747000000    -3.457000000
O     0.634000000     5.598000000    -3.937000000
C    -0.573000000     5.167000000    -4.429000000
C    -1.702000000     4.897000000    -3.697000000
H    -1.621000000     4.983000000    -2.616000000
C    -0.652000000     5.029000000    -5.877000000
H     0.268000000     5.177000000    -6.437000000
C    -1.838000000     4.604000000    -6.488000000
H    -1.797000000     4.426000000    -7.559000000
C    -2.977000000     4.358000000    -5.699000000
H    -3.922000000     3.925000000    -6.020000000
C    -2.880000000     4.526000000    -4.320000000
O    -4.027000000     4.330000000    -3.523000000
C    -4.391000000     3.193000000    -2.870000000
C    -5.513000000     3.222000000    -1.962000000
H    -6.013000000     4.176000000    -1.808000000
C    -5.895000000     2.137000000    -1.311000000
O    -6.898000000     2.155000000    -0.381000000
C    -6.945000000     1.338000000     0.696000000
C    -6.042000000     1.435000000     1.776000000
H    -5.226000000     2.152000000     1.729000000
C    -8.031000000     0.453000000     0.837000000
H    -8.830000000     0.383000000     0.103000000
C    -8.216000000    -0.312000000     1.967000000
H    -9.035000000    -1.018000000     2.075000000
C    -7.261000000    -0.240000000     2.998000000
H    -7.423000000    -0.787000000     3.923000000
C    -6.157000000     0.572000000     2.849000000
O    -5.327000000     0.734000000     3.890000000
C    -4.273000000    -0.128000000     4.209000000
C    -3.504000000     0.045000000     5.371000000
H    -3.854000000     0.689000000     6.175000000
C    -2.391000000    -0.786000000     5.584000000
O    -1.727000000    -0.624000000     6.811000000
C    -0.359000000    -0.696000000     6.866000000
C     0.441000000     0.364000000     6.386000000
H     0.053000000     1.231000000     5.857000000
C     0.247000000    -1.789000000     7.547000000
H    -0.331000000    -2.557000000     8.055000000
C     1.649000000    -1.860000000     7.711000000
H     2.064000000    -2.730000000     8.214000000
C     2.421000000    -0.925000000     7.101000000
H     3.502000000    -1.001000000     7.180000000
C     1.801000000     0.233000000     6.530000000
O     2.684000000     1.223000000     6.068000000
C     3.370000000     1.037000000     4.874000000
C     4.267000000     2.074000000     4.497000000
H     4.396000000     2.860000000     5.236000000
C     4.823000000     1.961000000     3.254000000
O     5.517000000     3.112000000     2.888000000
C     5.884000000     3.267000000     1.537000000
C     7.124000000     2.785000000     1.044000000
H     7.738000000     2.210000000     1.732000000
C     7.422000000     2.929000000    -0.305000000
H     8.278000000     2.330000000    -0.603000000
C     6.538000000     3.559000000    -1.196000000
H     6.705000000     3.536000000    -2.270000000
C     5.427000000     4.252000000    -0.608000000
C     5.077000000     4.100000000     0.706000000
H     4.318000000     4.746000000     1.140000000
C    -1.061000000     1.401000000     2.797000000
H    -1.066000000     1.020000000     3.815000000
C    -0.569000000     0.514000000     1.815000000
H    -0.096000000    -0.419000000     2.112000000
C    -0.877000000     0.733000000     0.436000000
H    -0.542000000     0.007000000    -0.351000000
C    -1.640000000     1.798000000     0.107000000
H    -1.922000000     1.950000000    -0.932000000
C    -2.019000000     2.745000000     1.057000000
H    -2.472000000     3.702000000     0.810000000
C    -1.831000000     2.490000000     2.436000000
C    -2.452000000     3.401000000     3.479000000
O    -3.364000000     4.157000000     3.163000000
O    -2.084000000     3.457000000     4.625000000
O    -7.608000000     6.219000000     1.903000000
H    -7.354000000     6.817000000     2.605000000
H    -6.817000000     5.710000000     1.724000000
O    -0.246000000     4.849000000     5.869000000
H    -0.883000000     4.308000000     5.402000000
H     0.599000000     4.437000000     5.686000000
O    -7.557000000     3.832000000     5.582000000
H    -6.891000000     4.308000000     5.086000000
H    -7.140000000     3.000000000     5.805000000
O    -4.588000000     2.840000000     8.103000000
H    -4.597000000     3.366000000     8.903000000
H    -4.038000000     3.337000000     7.497000000
O    -2.119000000     2.007000000     9.347000000
H    -2.701000000     1.963000000     8.589000000
H    -1.550000000     2.756000000     9.170000000
O     0.812000000     5.143000000     1.048000000
H    -0.050000000     5.442000000     0.759000000
H     1.430000000     5.649000000     0.520000000
O     0.907000000     6.983000000     7.077000000
H     0.654000000     6.081000000     6.878000000
H     0.855000000     7.437000000     6.236000000
O     2.236000000     6.731000000     2.838000000
H     2.474000000     6.940000000     1.935000000
H     1.734000000     5.919000000     2.771000000
O    -3.580000000     8.497000000     1.551000000
H    -4.101000000     7.788000000     1.175000000
H    -4.226000000     9.091000000     1.934000000
O     1.862000000     2.331000000     0.531000000
H     1.159000000     1.855000000     0.973000000
H     1.779000000     3.230000000     0.850000000
O    -5.241000000     4.780000000     1.424000000
H    -4.598000000     4.684000000     0.721000000
H    -4.763000000     4.550000000     2.220000000
O    -3.054000000     4.659000000     6.877000000
H    -2.230000000     4.858000000     7.322000000
H    -2.790000000     4.361000000     6.006000000
O    -1.428000000     6.528000000     0.534000000
H    -1.837000000     7.005000000     1.255000000
H    -2.106000000     6.485000000    -0.140000000
O    -5.981000000     5.408000000     7.835000000
H    -5.026000000     5.339000000     7.841000000
H    -6.245000000     5.011000000     7.005000000
O    -6.668000000     1.494000000     6.818000000
H    -5.887000000     1.985000000     7.071000000
H    -6.426000000     0.577000000     6.946000000
O    -0.948000000     4.691000000     8.660000000
H    -0.271000000     4.331000000     8.086000000
H    -0.490000000     5.342000000     9.191000000
O    -2.515000000     6.585000000     3.831000000
H    -2.917000000     5.877000000     3.328000000
H    -1.789000000     6.167000000     4.295000000
O    -3.228000000     9.006000000     5.008000000
H    -3.089000000     8.168000000     4.566000000
H    -3.993000000     8.859000000     5.564000000
O    -5.534000000     5.239000000     4.694000000
H    -4.898000000     5.744000000     5.202000000
H    -5.000000000     4.657000000     4.153000000
