215
-1451.41377
C    -4.623000000     0.223000000    -0.718000000
H    -4.583000000    -0.622000000    -0.035000000
C    -3.997000000     0.123000000    -1.912000000
C    -4.156000000     1.164000000    -2.814000000
H    -3.608000000     1.209000000    -3.751000000
C    -3.192000000    -1.119000000    -2.315000000
O    -3.858000000    -2.345000000    -1.846000000
H    -2.243000000    -1.088000000    -1.759000000
O    -2.828000000    -1.217000000    -3.733000000
C    -1.500000000    -1.453000000    -3.975000000
C    -0.710000000    -0.367000000    -4.411000000
H    -1.180000000     0.604000000    -4.541000000
C     0.649000000    -0.648000000    -4.654000000
O     1.368000000     0.557000000    -4.772000000
C     1.170000000    -1.872000000    -4.424000000
C     2.679000000    -2.100000000    -4.537000000
H     2.877000000    -3.096000000    -4.938000000
C     3.297000000    -1.771000000    -3.192000000
C     3.362000000    -2.804000000    -2.204000000
H     3.086000000    -3.826000000    -2.452000000
H     3.080000000    -1.415000000    -5.287000000
C     0.358000000    -2.942000000    -4.047000000
H     0.841000000    -3.868000000    -3.746000000
C    -0.961000000    -2.738000000    -3.825000000
C    -1.774000000    -3.903000000    -3.279000000
H    -1.330000000    -4.859000000    -3.564000000
H    -2.723000000    -3.961000000    -3.817000000
C    -2.002000000    -3.912000000    -1.822000000
C    -1.224000000    -4.853000000    -1.073000000
H    -0.460000000    -5.423000000    -1.596000000
C    -3.051000000    -3.221000000    -1.195000000
C    -3.201000000    -3.301000000     0.186000000
H    -4.051000000    -2.790000000     0.630000000
C    -2.292000000    -4.054000000     0.965000000
O    -2.426000000    -4.108000000     2.270000000
C    -1.543000000    -3.238000000     2.935000000
C    -2.245000000    -2.443000000     4.107000000
C    -1.390000000    -1.612000000     4.854000000
H    -0.348000000    -1.597000000     4.544000000
C    -3.653000000    -2.134000000     4.090000000
H    -4.298000000    -2.659000000     3.390000000
O    -0.428000000    -3.955000000     3.488000000
H    -1.197000000    -2.401000000     2.310000000
C    -1.259000000    -4.787000000     0.336000000
C    -0.281000000    -5.544000000     1.120000000
H     0.141000000    -6.307000000     0.464000000
H    -0.814000000    -6.103000000     1.892000000
C     0.890000000    -4.777000000     1.623000000
C     1.941000000    -4.651000000     0.715000000
H     1.985000000    -5.285000000    -0.167000000
C     0.751000000    -3.959000000     2.777000000
C     1.806000000    -3.071000000     3.078000000
H     1.774000000    -2.462000000     3.978000000
C     2.925000000    -2.919000000     2.155000000
O     3.812000000    -1.898000000     2.490000000
C     3.772000000    -0.808000000     1.578000000
C     3.994000000     0.496000000     2.366000000
C     3.284000000     0.715000000     3.564000000
H     2.599000000    -0.064000000     3.888000000
C     4.783000000     1.515000000     1.780000000
H     5.217000000     1.534000000     0.784000000
O     4.851000000    -0.940000000     0.537000000
H     2.756000000    -0.727000000     1.163000000
C     2.981000000    -3.774000000     0.983000000
C     4.075000000    -3.618000000     0.006000000
H     4.280000000    -4.502000000    -0.602000000
H     5.027000000    -3.453000000     0.516000000
C     3.923000000    -2.487000000    -0.965000000
C     4.437000000    -1.223000000    -0.732000000
C     4.246000000    -0.211000000    -1.634000000
H     4.562000000     0.815000000    -1.460000000
C     3.692000000    -0.455000000    -2.882000000
O     3.313000000     0.581000000    -3.692000000
C     1.999000000     1.099000000    -3.644000000
H     1.437000000     0.755000000    -2.764000000
C     1.849000000     2.644000000    -3.507000000
C     0.741000000     3.280000000    -3.988000000
H    -0.005000000     2.656000000    -4.473000000
C     2.821000000     3.392000000    -2.863000000
H     3.625000000     2.873000000    -2.347000000
C     2.747000000     4.777000000    -2.749000000
O     3.675000000     5.450000000    -2.088000000
C     1.631000000     5.391000000    -3.272000000
H     1.549000000     6.457000000    -3.080000000
C     0.561000000     4.659000000    -3.847000000
O    -0.498000000     5.334000000    -4.437000000
C    -1.740000000     4.840000000    -4.760000000
C    -2.674000000     4.347000000    -3.830000000
H    -2.350000000     4.330000000    -2.792000000
C    -2.137000000     5.129000000    -6.062000000
H    -1.481000000     5.580000000    -6.802000000
C    -3.391000000     4.682000000    -6.498000000
H    -3.682000000     4.986000000    -7.500000000
C    -4.285000000     4.110000000    -5.644000000
H    -5.276000000     3.796000000    -5.963000000
C    -3.899000000     3.908000000    -4.317000000
O    -4.845000000     3.459000000    -3.414000000
C    -4.739000000     2.367000000    -2.495000000
C    -5.409000000     2.421000000    -1.244000000
H    -5.879000000     3.376000000    -1.023000000
C    -5.277000000     1.411000000    -0.318000000
O    -5.835000000     1.682000000     0.866000000
C    -6.354000000     0.754000000     1.770000000
C    -5.655000000     0.416000000     2.924000000
H    -4.698000000     0.896000000     3.113000000
C    -7.563000000     0.130000000     1.465000000
H    -8.091000000     0.281000000     0.526000000
C    -8.118000000    -0.864000000     2.289000000
H    -9.093000000    -1.308000000     2.107000000
C    -7.444000000    -1.149000000     3.494000000
H    -7.900000000    -1.851000000     4.187000000
C    -6.203000000    -0.553000000     3.774000000
O    -5.522000000    -0.855000000     4.939000000
C    -4.169000000    -1.194000000     4.933000000
C    -3.341000000    -0.454000000     5.740000000
H    -3.730000000     0.234000000     6.486000000
C    -1.991000000    -0.647000000     5.676000000
O    -1.286000000     0.227000000     6.526000000
C     0.067000000     0.194000000     6.648000000
C     0.797000000     1.297000000     6.096000000
H     0.207000000     2.044000000     5.571000000
C     0.701000000    -0.751000000     7.426000000
H     0.132000000    -1.609000000     7.774000000
C     2.078000000    -0.763000000     7.555000000
H     2.469000000    -1.701000000     7.940000000
C     2.813000000     0.266000000     6.917000000
H     3.883000000     0.120000000     6.791000000
C     2.142000000     1.297000000     6.223000000
O     2.810000000     2.198000000     5.451000000
C     3.505000000     1.883000000     4.258000000
C     4.275000000     2.884000000     3.721000000
H     4.306000000     3.847000000     4.224000000
C     4.882000000     2.678000000     2.484000000
O     5.671000000     3.736000000     1.895000000
C     5.751000000     4.038000000     0.524000000
C     6.895000000     3.760000000    -0.214000000
H     7.763000000     3.298000000     0.249000000
C     6.967000000     4.125000000    -1.528000000
H     7.849000000     3.926000000    -2.131000000
C     5.860000000     4.664000000    -2.104000000
H     5.810000000     5.119000000    -3.090000000
C     4.744000000     4.931000000    -1.402000000
C     4.630000000     4.636000000    -0.068000000
H     3.754000000     4.859000000     0.535000000
C    -0.577000000     1.060000000     2.587000000
H    -0.551000000     0.970000000     3.670000000
C     0.278000000     0.260000000     1.820000000
H     0.975000000    -0.389000000     2.343000000
C     0.119000000     0.247000000     0.440000000
H     0.820000000    -0.436000000    -0.084000000
C    -0.781000000     1.051000000    -0.195000000
H    -0.838000000     1.059000000    -1.281000000
C    -1.633000000     1.787000000     0.553000000
H    -2.364000000     2.341000000    -0.030000000
C    -1.573000000     1.846000000     1.956000000
C    -2.505000000     2.780000000     2.744000000
O    -3.059000000     3.652000000     2.163000000
O    -2.447000000     2.754000000     3.939000000
O    -7.291000000     6.228000000     0.660000000
H    -6.732000000     5.547000000     1.036000000
H    -7.493000000     6.806000000     1.395000000
O    -0.178000000     4.429000000     4.193000000
H    -1.045000000     4.048000000     4.054000000
H    -0.156000000     4.638000000     5.127000000
O    -1.914000000     5.730000000     7.997000000
H    -1.940000000     5.137000000     7.246000000
H    -2.818000000     6.029000000     8.097000000
O     0.355000000     6.658000000     6.394000000
H     1.012000000     6.026000000     6.686000000
H    -0.387000000     6.521000000     6.983000000
O    -8.081000000     1.752000000     5.837000000
H    -7.549000000     1.924000000     5.059000000
H    -8.646000000     2.520000000     5.915000000
O    -1.311000000     1.861000000     9.123000000
H    -1.142000000     2.265000000     8.272000000
H    -2.234000000     2.046000000     9.297000000
O     0.620000000     4.950000000     1.548000000
H     0.329000000     4.586000000     2.384000000
H    -0.167000000     5.345000000     1.173000000
O     0.241000000     7.860000000     3.634000000
H     0.997000000     7.357000000     3.936000000
H     0.113000000     8.529000000     4.306000000
O     2.851000000     6.471000000     3.518000000
H     2.457000000     6.251000000     2.674000000
H     3.177000000     5.636000000     3.855000000
O    -2.430000000     7.646000000     2.780000000
H    -1.503000000     7.684000000     3.013000000
H    -2.803000000     7.002000000     3.381000000
O     1.778000000     2.763000000     0.608000000
H     1.102000000     2.106000000     0.775000000
H     1.382000000     3.590000000     0.884000000
O    -5.611000000     4.272000000     1.787000000
H    -5.496000000     3.441000000     1.328000000
H    -4.729000000     4.515000000     2.069000000
O    -2.181000000     3.715000000     6.157000000
H    -2.942000000     3.496000000     6.695000000
H    -2.347000000     3.283000000     5.319000000
O    -1.946000000     5.729000000     0.962000000
H    -2.398000000     5.011000000     1.405000000
H    -2.031000000     6.472000000     1.560000000
O    -3.576000000     5.468000000     4.299000000
H    -3.452000000     4.678000000     3.773000000
H    -3.185000000     5.256000000     5.146000000
O    -6.039000000     6.482000000     4.154000000
H    -6.118000000     6.292000000     5.089000000
H    -5.152000000     6.201000000     3.927000000
O    -4.652000000     3.125000000     7.071000000
H    -4.955000000     2.291000000     7.428000000
H    -4.898000000     3.772000000     7.732000000
O    -1.889000000     7.132000000    -1.395000000
H    -2.465000000     6.704000000    -2.028000000
H    -1.877000000     6.539000000    -0.643000000
O    -6.674000000     3.243000000     4.106000000
H    -5.889000000     3.207000000     4.653000000
H    -6.363000000     3.565000000     3.260000000
