215
-1451.99072
C    -4.732000000     0.415000000    -0.850000000
H    -4.582000000    -0.271000000    -0.020000000
C    -4.138000000     0.309000000    -2.115000000
C    -4.250000000     1.370000000    -3.014000000
H    -3.742000000     1.347000000    -3.974000000
C    -3.286000000    -0.922000000    -2.483000000
O    -3.864000000    -2.125000000    -1.995000000
H    -2.315000000    -0.770000000    -1.990000000
O    -2.950000000    -1.004000000    -3.857000000
C    -1.610000000    -1.171000000    -4.171000000
C    -0.766000000    -0.106000000    -4.457000000
H    -1.161000000     0.905000000    -4.398000000
C     0.577000000    -0.363000000    -4.471000000
O     1.445000000     0.733000000    -4.701000000
C     1.104000000    -1.704000000    -4.537000000
C     2.570000000    -1.928000000    -4.613000000
H     2.669000000    -3.009000000    -4.731000000
C     3.220000000    -1.554000000    -3.331000000
C     3.571000000    -2.613000000    -2.487000000
H     3.343000000    -3.641000000    -2.757000000
H     3.058000000    -1.379000000    -5.420000000
C     0.212000000    -2.772000000    -4.317000000
H     0.626000000    -3.777000000    -4.337000000
C    -1.186000000    -2.498000000    -4.109000000
C    -2.096000000    -3.619000000    -3.702000000
H    -1.739000000    -4.447000000    -4.319000000
H    -3.094000000    -3.521000000    -4.136000000
C    -2.211000000    -3.835000000    -2.243000000
C    -1.364000000    -4.661000000    -1.511000000
H    -0.561000000    -5.119000000    -2.084000000
C    -3.142000000    -3.179000000    -1.498000000
C    -3.207000000    -3.298000000    -0.108000000
H    -4.011000000    -2.689000000     0.298000000
C    -2.354000000    -4.091000000     0.603000000
O    -2.479000000    -3.950000000     1.956000000
C    -1.556000000    -2.978000000     2.499000000
C    -2.124000000    -2.106000000     3.606000000
C    -1.319000000    -1.584000000     4.640000000
H    -0.253000000    -1.798000000     4.620000000
C    -3.524000000    -1.935000000     3.687000000
H    -4.177000000    -2.384000000     2.943000000
O    -0.392000000    -3.682000000     2.908000000
H    -1.361000000    -2.255000000     1.694000000
C    -1.337000000    -4.749000000    -0.086000000
C    -0.224000000    -5.537000000     0.642000000
H     0.152000000    -6.394000000     0.080000000
H    -0.629000000    -6.071000000     1.504000000
C     0.927000000    -4.583000000     1.105000000
C     2.054000000    -4.573000000     0.286000000
H     2.099000000    -5.131000000    -0.646000000
C     0.815000000    -3.738000000     2.180000000
C     1.913000000    -3.074000000     2.610000000
H     1.962000000    -2.601000000     3.587000000
C     3.005000000    -2.988000000     1.836000000
O     3.935000000    -2.127000000     2.162000000
C     3.818000000    -0.831000000     1.581000000
C     4.039000000     0.304000000     2.601000000
C     3.500000000     0.267000000     3.876000000
H     3.229000000    -0.668000000     4.361000000
C     4.575000000     1.513000000     2.097000000
H     4.987000000     1.484000000     1.092000000
O     4.892000000    -0.903000000     0.493000000
H     2.795000000    -0.719000000     1.192000000
C     3.101000000    -3.699000000     0.643000000
C     4.303000000    -3.504000000    -0.292000000
H     4.584000000    -4.401000000    -0.848000000
H     5.251000000    -3.390000000     0.239000000
C     4.109000000    -2.364000000    -1.211000000
C     4.339000000    -1.081000000    -0.764000000
C     4.210000000    -0.016000000    -1.676000000
H     4.351000000     1.021000000    -1.380000000
C     3.644000000    -0.269000000    -2.945000000
O     3.462000000     0.827000000    -3.679000000
C     2.074000000     1.272000000    -3.607000000
H     1.721000000     0.869000000    -2.646000000
C     1.841000000     2.786000000    -3.434000000
C     0.652000000     3.500000000    -3.792000000
H    -0.184000000     2.897000000    -4.137000000
C     2.850000000     3.474000000    -2.756000000
H     3.766000000     2.943000000    -2.509000000
C     2.726000000     4.812000000    -2.381000000
O     3.832000000     5.523000000    -1.791000000
C     1.553000000     5.452000000    -2.670000000
H     1.361000000     6.483000000    -2.384000000
C     0.536000000     4.795000000    -3.345000000
O    -0.569000000     5.569000000    -3.655000000
C    -1.707000000     5.039000000    -4.260000000
C    -2.819000000     4.568000000    -3.517000000
H    -2.828000000     4.720000000    -2.440000000
C    -1.720000000     5.044000000    -5.629000000
H    -0.974000000     5.418000000    -6.325000000
C    -2.786000000     4.445000000    -6.292000000
H    -2.954000000     4.540000000    -7.362000000
C    -3.874000000     3.925000000    -5.641000000
H    -4.758000000     3.628000000    -6.199000000
C    -3.861000000     3.963000000    -4.230000000
O    -5.015000000     3.526000000    -3.576000000
C    -4.938000000     2.520000000    -2.624000000
C    -5.639000000     2.560000000    -1.462000000
H    -6.391000000     3.317000000    -1.255000000
C    -5.446000000     1.544000000    -0.576000000
O    -6.066000000     1.703000000     0.684000000
C    -6.394000000     0.614000000     1.451000000
C    -5.771000000     0.511000000     2.650000000
H    -4.935000000     1.177000000     2.845000000
C    -7.475000000    -0.175000000     1.126000000
H    -8.136000000     0.038000000     0.290000000
C    -7.976000000    -1.068000000     2.111000000
H    -8.850000000    -1.625000000     1.784000000
C    -7.284000000    -1.329000000     3.297000000
H    -7.531000000    -2.174000000     3.934000000
C    -6.167000000    -0.539000000     3.538000000
O    -5.385000000    -0.733000000     4.636000000
C    -4.041000000    -1.016000000     4.533000000
C    -3.325000000    -0.581000000     5.580000000
H    -3.769000000     0.052000000     6.345000000
C    -1.966000000    -0.873000000     5.662000000
O    -1.281000000    -0.258000000     6.634000000
C     0.130000000    -0.362000000     6.905000000
C     0.994000000     0.414000000     6.163000000
H     0.557000000     1.084000000     5.427000000
C     0.535000000    -1.184000000     7.981000000
H    -0.150000000    -1.843000000     8.509000000
C     1.932000000    -1.288000000     8.187000000
H     2.225000000    -2.083000000     8.868000000
C     2.826000000    -0.477000000     7.486000000
H     3.892000000    -0.521000000     7.695000000
C     2.323000000     0.448000000     6.534000000
O     3.168000000     1.396000000     6.019000000
C     3.510000000     1.431000000     4.712000000
C     4.131000000     2.547000000     4.271000000
H     4.256000000     3.400000000     4.933000000
C     4.607000000     2.660000000     2.917000000
O     5.120000000     3.882000000     2.456000000
C     5.389000000     4.086000000     1.139000000
C     6.671000000     3.878000000     0.628000000
H     7.437000000     3.537000000     1.321000000
C     7.011000000     4.150000000    -0.698000000
H     8.035000000     4.058000000    -1.050000000
C     6.020000000     4.691000000    -1.540000000
H     6.105000000     4.870000000    -2.608000000
C     4.766000000     4.905000000    -1.020000000
C     4.396000000     4.529000000     0.246000000
H     3.366000000     4.630000000     0.579000000
C    -0.808000000     1.325000000     2.261000000
H    -0.978000000     1.418000000     3.330000000
C     0.030000000     0.295000000     1.864000000
H     0.395000000    -0.484000000     2.528000000
C     0.262000000     0.094000000     0.516000000
H     0.741000000    -0.764000000     0.022000000
C    -0.271000000     0.931000000    -0.389000000
H    -0.267000000     0.742000000    -1.459000000
C    -1.109000000     1.997000000     0.009000000
H    -1.599000000     2.643000000    -0.715000000
C    -1.370000000     2.243000000     1.410000000
C    -2.274000000     3.278000000     1.892000000
O    -2.670000000     4.129000000     1.091000000
O    -2.542000000     3.416000000     3.065000000
O    -1.386000000     5.474000000     4.610000000
H    -1.711000000     4.651000000     4.246000000
H    -1.789000000     6.152000000     4.068000000
O    -0.934000000     2.611000000     7.333000000
H    -1.562000000     2.794000000     6.634000000
H    -1.285000000     1.838000000     7.775000000
O     0.232000000     5.566000000     7.115000000
H    -0.126000000     5.687000000     6.236000000
H     0.878000000     4.866000000     7.017000000
O    -7.256000000     5.333000000    -0.118000000
H    -6.616000000     5.702000000     0.490000000
H    -8.013000000     5.916000000    -0.052000000
O     3.187000000     5.633000000     4.142000000
H     2.358000000     5.373000000     3.740000000
H     3.782000000     4.907000000     3.955000000
O    -1.357000000     7.673000000    -0.525000000
H    -2.139000000     7.872000000    -1.040000000
H    -0.809000000     8.453000000    -0.613000000
O    -4.519000000     8.597000000     2.628000000
H    -3.829000000     8.006000000     2.328000000
H    -4.070000000     9.215000000     3.205000000
O     1.156000000     4.790000000     2.809000000
H     0.894000000     5.345000000     2.074000000
H     0.360000000     4.692000000     3.331000000
O     0.820000000     5.890000000     0.221000000
H     0.562000000     5.115000000    -0.279000000
H     0.086000000     6.496000000     0.118000000
O    -5.564000000     4.007000000     2.956000000
H    -4.815000000     3.997000000     2.360000000
H    -5.663000000     4.927000000     3.201000000
O    -3.202000000     3.164000000     5.731000000
H    -3.994000000     3.698000000     5.803000000
H    -3.027000000     3.121000000     4.790000000
O    -4.448000000     5.292000000    -0.299000000
H    -3.851000000     4.699000000     0.158000000
H    -5.229000000     4.764000000    -0.465000000
O     1.625000000     8.025000000     1.659000000
H     1.615000000     7.119000000     1.352000000
H     1.372000000     8.540000000     0.893000000
O    -2.267000000     6.577000000     2.094000000
H    -2.113000000     7.116000000     1.318000000
H    -2.493000000     5.715000000     1.746000000
O    -4.776000000     5.236000000     5.666000000
H    -5.444000000     5.864000000     5.392000000
H    -4.211000000     5.731000000     6.260000000
O    -6.494000000     6.745000000     2.973000000
H    -5.700000000     7.194000000     2.682000000
H    -6.718000000     7.167000000     3.801000000
O    -6.988000000     2.669000000     4.929000000
H    -6.288000000     3.321000000     4.933000000
H    -6.911000000     2.239000000     4.077000000
O    -3.757000000     7.368000000    -1.926000000
H    -4.440000000     7.425000000    -2.593000000
H    -4.030000000     6.642000000    -1.365000000
O    -8.216000000     3.678000000     2.145000000
H    -7.374000000     3.628000000     2.598000000
H    -8.086000000     4.347000000     1.472000000
