215
-1468.57545
C    -4.747000000    -0.360000000    -1.205000000
H    -4.948000000    -1.221000000    -0.571000000
C    -3.819000000    -0.487000000    -2.275000000
C    -3.551000000     0.588000000    -3.124000000
H    -2.792000000     0.583000000    -3.902000000
C    -2.872000000    -1.728000000    -2.336000000
O    -3.535000000    -2.902000000    -1.793000000
H    -1.980000000    -1.519000000    -1.727000000
O    -2.474000000    -1.969000000    -3.716000000
C    -1.114000000    -2.196000000    -3.848000000
C    -0.295000000    -1.237000000    -4.444000000
H    -0.818000000    -0.414000000    -4.925000000
C     1.103000000    -1.238000000    -4.274000000
O     1.891000000    -0.173000000    -4.604000000
C     1.682000000    -2.324000000    -3.629000000
C     3.212000000    -2.505000000    -3.616000000
H     3.405000000    -3.579000000    -3.593000000
C     3.941000000    -1.881000000    -2.416000000
C     4.202000000    -2.726000000    -1.323000000
H     4.037000000    -3.799000000    -1.255000000
H     3.702000000    -2.101000000    -4.504000000
C     0.902000000    -3.385000000    -3.261000000
H     1.339000000    -4.210000000    -2.704000000
C    -0.489000000    -3.334000000    -3.332000000
C    -1.335000000    -4.494000000    -2.842000000
H    -0.942000000    -5.471000000    -3.132000000
H    -2.261000000    -4.529000000    -3.420000000
C    -1.703000000    -4.465000000    -1.366000000
C    -0.829000000    -5.033000000    -0.408000000
H     0.004000000    -5.620000000    -0.788000000
C    -2.802000000    -3.738000000    -0.929000000
C    -2.991000000    -3.508000000     0.438000000
H    -3.688000000    -2.738000000     0.758000000
C    -2.125000000    -4.087000000     1.396000000
O    -2.315000000    -3.787000000     2.755000000
C    -1.564000000    -2.661000000     3.112000000
C    -2.541000000    -1.731000000     3.909000000
C    -2.000000000    -0.720000000     4.723000000
H    -0.933000000    -0.531000000     4.803000000
C    -3.911000000    -1.673000000     3.732000000
H    -4.391000000    -2.200000000     2.911000000
O    -0.503000000    -3.101000000     3.964000000
H    -1.090000000    -2.137000000     2.270000000
C    -1.028000000    -4.802000000     0.974000000
C     0.059000000    -5.323000000     1.953000000
H     0.612000000    -6.173000000     1.548000000
H    -0.404000000    -5.750000000     2.845000000
C     1.082000000    -4.245000000     2.404000000
C     2.275000000    -4.152000000     1.758000000
H     2.443000000    -4.833000000     0.927000000
C     0.719000000    -3.243000000     3.349000000
C     1.623000000    -2.274000000     3.627000000
H     1.338000000    -1.476000000     4.308000000
C     2.821000000    -2.118000000     2.919000000
O     3.660000000    -1.048000000     3.205000000
C     3.619000000    -0.091000000     2.086000000
C     3.545000000     1.375000000     2.539000000
C     2.706000000     1.666000000     3.618000000
H     2.227000000     0.854000000     4.157000000
C     4.148000000     2.378000000     1.786000000
H     4.842000000     2.012000000     1.034000000
O     4.850000000    -0.173000000     1.210000000
H     2.708000000    -0.227000000     1.483000000
C     3.103000000    -3.082000000     1.944000000
C     4.472000000    -2.957000000     1.140000000
H     4.806000000    -3.962000000     0.875000000
H     5.309000000    -2.588000000     1.737000000
C     4.490000000    -2.125000000    -0.098000000
C     4.709000000    -0.778000000     0.009000000
C     4.638000000     0.043000000    -1.168000000
H     4.873000000     1.103000000    -1.134000000
C     4.282000000    -0.490000000    -2.405000000
O     3.835000000     0.396000000    -3.400000000
C     2.437000000     0.655000000    -3.480000000
H     2.068000000     0.421000000    -2.470000000
C     2.230000000     2.155000000    -3.774000000
C     1.036000000     2.647000000    -4.374000000
H     0.359000000     1.892000000    -4.766000000
C     3.143000000     3.066000000    -3.247000000
H     4.041000000     2.800000000    -2.694000000
C     2.957000000     4.409000000    -3.467000000
O     3.854000000     5.333000000    -3.036000000
C     1.873000000     4.926000000    -4.103000000
H     1.696000000     5.978000000    -4.312000000
C     0.895000000     3.985000000    -4.567000000
O    -0.202000000     4.494000000    -5.306000000
C    -1.333000000     3.813000000    -5.622000000
C    -2.212000000     3.513000000    -4.612000000
H    -2.006000000     3.753000000    -3.572000000
C    -1.602000000     3.508000000    -6.903000000
H    -1.050000000     3.842000000    -7.777000000
C    -2.759000000     2.782000000    -7.237000000
H    -2.857000000     2.401000000    -8.250000000
C    -3.700000000     2.450000000    -6.209000000
H    -4.578000000     1.849000000    -6.432000000
C    -3.372000000     2.863000000    -4.898000000
O    -4.350000000     2.692000000    -3.919000000
C    -4.268000000     1.754000000    -2.920000000
C    -5.138000000     1.890000000    -1.845000000
H    -5.540000000     2.887000000    -1.685000000
C    -5.415000000     0.822000000    -1.029000000
O    -6.400000000     1.001000000    -0.087000000
C    -6.802000000     0.011000000     0.836000000
C    -6.267000000     0.046000000     2.091000000
H    -5.482000000     0.772000000     2.288000000
C    -7.811000000    -0.892000000     0.569000000
H    -8.367000000    -0.936000000    -0.364000000
C    -8.273000000    -1.803000000     1.495000000
H    -9.142000000    -2.422000000     1.289000000
C    -7.657000000    -1.892000000     2.732000000
H    -7.917000000    -2.673000000     3.443000000
C    -6.693000000    -0.916000000     3.033000000
O    -6.132000000    -0.907000000     4.300000000
C    -4.748000000    -0.894000000     4.520000000
C    -4.207000000    -0.141000000     5.511000000
H    -4.816000000     0.438000000     6.201000000
C    -2.798000000     0.046000000     5.602000000
O    -2.291000000     0.993000000     6.472000000
C    -0.950000000     1.211000000     6.585000000
C    -0.371000000     2.194000000     5.727000000
H    -0.930000000     2.617000000     4.896000000
C    -0.196000000     0.587000000     7.614000000
H    -0.577000000    -0.215000000     8.241000000
C     1.102000000     0.986000000     7.739000000
H     1.688000000     0.420000000     8.459000000
C     1.699000000     1.899000000     6.864000000
H     2.771000000     1.991000000     7.019000000
C     0.978000000     2.430000000     5.800000000
O     1.576000000     3.376000000     4.898000000
C     2.528000000     2.996000000     3.961000000
C     3.262000000     4.002000000     3.290000000
H     3.033000000     5.033000000     3.545000000
C     4.109000000     3.709000000     2.250000000
O     4.797000000     4.741000000     1.703000000
C     5.204000000     4.757000000     0.317000000
C     6.508000000     4.280000000    -0.019000000
H     7.203000000     4.104000000     0.798000000
C     6.946000000     4.367000000    -1.342000000
H     7.997000000     4.259000000    -1.599000000
C     6.053000000     4.719000000    -2.329000000
H     6.430000000     4.982000000    -3.314000000
C     4.728000000     5.102000000    -1.989000000
C     4.284000000     5.099000000    -0.668000000
H     3.250000000     5.418000000    -0.561000000
C    -0.838000000     0.860000000     1.351000000
H    -0.834000000     0.848000000     2.438000000
C    -0.202000000    -0.203000000     0.659000000
H     0.323000000    -1.034000000     1.123000000
C    -0.125000000    -0.162000000    -0.717000000
H     0.520000000    -0.897000000    -1.302000000
C    -0.845000000     0.791000000    -1.483000000
H    -0.758000000     0.761000000    -2.566000000
C    -1.444000000     1.871000000    -0.813000000
H    -1.930000000     2.649000000    -1.396000000
C    -1.403000000     1.939000000     0.607000000
C    -2.098000000     3.124000000     1.283000000
O    -2.920000000     3.727000000     0.582000000
O    -2.056000000     3.221000000     2.478000000
O    -0.121000000     9.068000000     3.006000000
H     0.218000000     9.396000000     2.173000000
H    -0.499000000     8.215000000     2.791000000
O    -0.724000000     5.784000000     5.650000000
H    -1.622000000     6.007000000     5.404000000
H    -0.344000000     5.412000000     4.854000000
O    -2.045000000     7.726000000    -0.193000000
H    -1.863000000     6.993000000    -0.780000000
H    -1.368000000     8.371000000    -0.397000000
O    -3.608000000     4.970000000    -1.620000000
H    -2.755000000     5.325000000    -1.870000000
H    -3.447000000     4.523000000    -0.789000000
O    -5.047000000     5.220000000     1.470000000
H    -4.651000000     5.390000000     2.325000000
H    -4.444000000     4.612000000     1.042000000
O    -3.259000000     6.510000000     5.178000000
H    -2.773000000     6.775000000     4.397000000
H    -4.127000000     6.273000000     4.851000000
O     0.687000000     5.274000000     0.233000000
H     0.186000000     5.327000000     1.047000000
H     1.097000000     4.409000000     0.261000000
O     1.634000000     2.707000000    -0.215000000
H     0.968000000     2.045000000    -0.028000000
H     2.185000000     2.310000000    -0.889000000
O    -2.089000000     6.932000000     2.531000000
H    -2.381000000     7.294000000     1.695000000
H    -2.113000000     5.984000000     2.404000000
O    -1.122000000     5.751000000    -1.778000000
H    -0.838000000     6.274000000    -2.529000000
H    -0.310000000     5.405000000    -1.408000000
O    -4.143000000     2.684000000     3.874000000
H    -3.401000000     2.975000000     3.342000000
H    -3.830000000     1.890000000     4.307000000
O    -5.604000000     3.849000000     5.622000000
H    -5.080000000     3.547000000     4.880000000
H    -5.954000000     4.694000000     5.340000000
O    -7.953000000     3.750000000    -0.323000000
H    -7.736000000     3.536000000     0.585000000
H    -7.573000000     4.618000000    -0.461000000
O     1.889000000     7.750000000    -0.279000000
H     2.755000000     7.800000000     0.126000000
H     1.595000000     6.856000000    -0.106000000
O    -0.012000000     4.813000000     3.089000000
H     0.792000000     4.375000000     3.369000000
H    -0.606000000     4.098000000     2.861000000
O    -5.885000000     6.325000000     4.376000000
H    -6.512000000     6.724000000     4.980000000
H    -6.061000000     6.746000000     3.535000000
O    -6.076000000     6.080000000    -1.089000000
H    -5.794000000     6.098000000    -0.175000000
H    -5.374000000     5.618000000    -1.548000000
O    -4.272000000     9.051000000     0.718000000
H    -3.458000000     8.744000000     0.319000000
H    -4.781000000     9.400000000    -0.014000000
O    -4.885000000     5.662000000    -4.201000000
H    -4.406000000     5.415000000    -3.410000000
H    -4.332000000     6.321000000    -4.621000000
