215
-1485.77395
C    -4.713000000    -0.667000000    -1.021000000
H    -4.643000000    -1.549000000    -0.389000000
C    -3.862000000    -0.594000000    -2.113000000
C    -3.945000000     0.555000000    -2.921000000
H    -3.302000000     0.631000000    -3.794000000
C    -2.657000000    -1.563000000    -2.260000000
O    -3.068000000    -2.867000000    -1.869000000
H    -1.744000000    -1.255000000    -1.730000000
O    -2.274000000    -1.633000000    -3.671000000
C    -0.920000000    -1.861000000    -3.955000000
C    -0.260000000    -0.732000000    -4.467000000
H    -0.757000000     0.233000000    -4.534000000
C     1.117000000    -0.782000000    -4.591000000
O     1.775000000     0.378000000    -4.757000000
C     1.744000000    -1.941000000    -4.180000000
C     3.258000000    -1.958000000    -4.141000000
H     3.672000000    -2.957000000    -4.294000000
C     3.858000000    -1.485000000    -2.773000000
C     4.118000000    -2.318000000    -1.720000000
H     3.815000000    -3.359000000    -1.800000000
H     3.482000000    -1.373000000    -5.035000000
C     1.087000000    -3.101000000    -3.811000000
H     1.582000000    -4.066000000    -3.732000000
C    -0.306000000    -3.086000000    -3.703000000
C    -1.027000000    -4.372000000    -3.138000000
H    -0.425000000    -5.204000000    -3.509000000
H    -2.010000000    -4.513000000    -3.593000000
C    -1.178000000    -4.344000000    -1.624000000
C    -0.239000000    -4.948000000    -0.770000000
H     0.608000000    -5.493000000    -1.178000000
C    -2.232000000    -3.586000000    -1.089000000
C    -2.481000000    -3.588000000     0.231000000
H    -3.329000000    -2.984000000     0.547000000
C    -1.580000000    -4.176000000     1.087000000
O    -1.792000000    -4.009000000     2.411000000
C    -1.221000000    -2.827000000     2.986000000
C    -2.249000000    -2.208000000     3.951000000
C    -1.668000000    -1.497000000     4.973000000
H    -0.591000000    -1.514000000     5.123000000
C    -3.573000000    -2.209000000     3.719000000
H    -3.857000000    -2.830000000     2.874000000
O    -0.003000000    -3.241000000     3.608000000
H    -1.023000000    -2.080000000     2.203000000
C    -0.433000000    -4.804000000     0.648000000
C     0.586000000    -5.294000000     1.635000000
H     1.210000000    -6.037000000     1.133000000
H     0.141000000    -5.637000000     2.571000000
C     1.534000000    -4.167000000     1.998000000
C     2.682000000    -3.981000000     1.249000000
H     3.033000000    -4.722000000     0.535000000
C     1.165000000    -3.173000000     2.911000000
C     2.049000000    -2.152000000     3.249000000
H     1.687000000    -1.401000000     3.947000000
C     3.246000000    -2.029000000     2.511000000
O     3.967000000    -0.900000000     2.760000000
C     3.847000000     0.064000000     1.751000000
C     3.657000000     1.418000000     2.354000000
C     2.732000000     1.548000000     3.354000000
H     2.162000000     0.691000000     3.704000000
C     4.293000000     2.582000000     1.872000000
H     4.925000000     2.436000000     0.999000000
O     5.058000000    -0.030000000     0.853000000
H     2.927000000    -0.195000000     1.208000000
C     3.588000000    -2.926000000     1.486000000
C     4.828000000    -2.763000000     0.579000000
H     5.142000000    -3.740000000     0.203000000
H     5.662000000    -2.388000000     1.176000000
C     4.566000000    -1.846000000    -0.524000000
C     4.655000000    -0.501000000    -0.334000000
C     4.406000000     0.410000000    -1.355000000
H     4.563000000     1.477000000    -1.221000000
C     4.009000000    -0.104000000    -2.609000000
O     3.660000000     0.845000000    -3.530000000
C     2.240000000     1.063000000    -3.588000000
H     1.832000000     0.650000000    -2.653000000
C     1.919000000     2.531000000    -3.673000000
C     0.781000000     2.956000000    -4.341000000
H    -0.002000000     2.260000000    -4.628000000
C     2.684000000     3.451000000    -2.974000000
H     3.532000000     3.116000000    -2.383000000
C     2.433000000     4.796000000    -3.166000000
O     3.267000000     5.777000000    -2.659000000
C     1.315000000     5.253000000    -3.810000000
H     1.098000000     6.311000000    -3.934000000
C     0.432000000     4.308000000    -4.381000000
O    -0.697000000     4.801000000    -4.996000000
C    -1.829000000     4.049000000    -5.193000000
C    -2.630000000     3.797000000    -4.113000000
H    -2.335000000     4.193000000    -3.145000000
C    -2.203000000     3.606000000    -6.471000000
H    -1.531000000     3.862000000    -7.286000000
C    -3.392000000     2.920000000    -6.681000000
H    -3.755000000     2.690000000    -7.680000000
C    -4.222000000     2.614000000    -5.575000000
H    -5.095000000     1.973000000    -5.668000000
C    -3.805000000     3.018000000    -4.307000000
O    -4.615000000     2.790000000    -3.262000000
C    -4.711000000     1.614000000    -2.563000000
C    -5.531000000     1.484000000    -1.486000000
H    -6.183000000     2.309000000    -1.211000000
C    -5.632000000     0.359000000    -0.771000000
O    -6.552000000     0.336000000     0.252000000
C    -6.763000000    -0.767000000     1.107000000
C    -6.112000000    -0.781000000     2.316000000
H    -5.311000000    -0.066000000     2.487000000
C    -7.812000000    -1.631000000     0.916000000
H    -8.387000000    -1.469000000     0.008000000
C    -8.249000000    -2.563000000     1.808000000
H    -9.150000000    -3.108000000     1.536000000
C    -7.514000000    -2.712000000     3.003000000
H    -7.740000000    -3.479000000     3.739000000
C    -6.460000000    -1.785000000     3.215000000
O    -5.844000000    -1.841000000     4.427000000
C    -4.448000000    -1.658000000     4.602000000
C    -3.956000000    -0.880000000     5.667000000
H    -4.554000000    -0.254000000     6.325000000
C    -2.562000000    -0.785000000     5.854000000
O    -2.096000000     0.061000000     6.856000000
C    -0.873000000     0.669000000     6.844000000
C    -0.431000000     1.441000000     5.765000000
H    -1.106000000     1.613000000     4.931000000
C    -0.049000000     0.414000000     7.927000000
H    -0.380000000    -0.134000000     8.806000000
C     1.237000000     0.792000000     7.891000000
H     1.857000000     0.571000000     8.756000000
C     1.690000000     1.681000000     6.899000000
H     2.714000000     2.044000000     6.922000000
C     0.919000000     1.952000000     5.768000000
O     1.300000000     2.830000000     4.766000000
C     2.343000000     2.816000000     3.901000000
C     3.042000000     3.976000000     3.481000000
H     2.691000000     4.925000000     3.877000000
C     3.997000000     3.835000000     2.422000000
O     4.565000000     5.013000000     1.852000000
C     4.886000000     4.994000000     0.511000000
C     6.184000000     4.748000000     0.098000000
H     6.819000000     4.485000000     0.940000000
C     6.450000000     4.889000000    -1.263000000
H     7.413000000     4.563000000    -1.648000000
C     5.453000000     5.197000000    -2.181000000
H     5.717000000     5.236000000    -3.235000000
C     4.194000000     5.525000000    -1.732000000
C     3.901000000     5.437000000    -0.370000000
H     2.859000000     5.638000000    -0.136000000
C    -0.934000000     1.080000000     1.615000000
H    -0.945000000     1.072000000     2.702000000
C    -0.165000000     0.137000000     0.931000000
H     0.481000000    -0.515000000     1.513000000
C    -0.232000000     0.131000000    -0.446000000
H     0.336000000    -0.576000000    -1.158000000
C    -1.118000000     0.959000000    -1.112000000
H    -1.172000000     0.951000000    -2.198000000
C    -1.938000000     1.845000000    -0.367000000
H    -2.663000000     2.340000000    -1.007000000
C    -1.790000000     1.964000000     1.031000000
C    -2.598000000     2.914000000     1.834000000
O    -3.429000000     3.643000000     1.267000000
O    -2.355000000     3.096000000     3.001000000
O    -0.058000000     4.629000000     1.846000000
H    -0.947000000     4.361000000     2.079000000
H     0.400000000     4.695000000     2.684000000
O    -4.678000000     2.875000000     7.573000000
H    -4.366000000     3.780000000     7.600000000
H    -5.033000000     2.770000000     6.691000000
O    -2.504000000     7.528000000     0.527000000
H    -2.400000000     7.118000000    -0.332000000
H    -1.816000000     8.192000000     0.560000000
O    -4.338000000     5.018000000    -0.826000000
H    -3.543000000     5.317000000    -1.267000000
H    -4.022000000     4.534000000    -0.063000000
O    -6.386000000     3.435000000     1.412000000
H    -6.581000000     4.303000000     1.060000000
H    -5.431000000     3.410000000     1.475000000
O    -4.840000000     7.545000000     4.704000000
H    -4.735000000     6.946000000     3.965000000
H    -5.748000000     7.423000000     4.984000000
O     0.094000000     4.977000000    -0.861000000
H    -0.226000000     4.850000000     0.033000000
H     0.790000000     4.328000000    -0.961000000
O    -6.948000000     2.370000000     5.599000000
H    -6.041000000     2.540000000     5.344000000
H    -7.443000000     2.440000000     4.783000000
O     1.516000000     2.519000000    -0.262000000
H     0.704000000     2.071000000    -0.499000000
H     1.447000000     2.657000000     0.683000000
O    -3.756000000     6.092000000     2.416000000
H    -3.529000000     5.193000000     2.179000000
H    -3.653000000     6.588000000     1.604000000
O    -2.168000000     6.367000000    -1.817000000
H    -1.868000000     6.982000000    -2.486000000
H    -1.436000000     5.762000000    -1.702000000
O    -4.841000000     3.799000000     4.176000000
H    -3.986000000     3.594000000     3.797000000
H    -5.128000000     4.584000000     3.709000000
O    -6.402000000     5.107000000     6.209000000
H    -6.110000000     5.420000000     5.353000000
H    -6.936000000     4.337000000     6.012000000
O    -1.505000000     6.636000000     3.940000000
H    -2.304000000     6.433000000     3.454000000
H    -1.536000000     6.061000000     4.704000000
O    -1.238000000     4.199000000     5.145000000
H    -0.373000000     3.791000000     5.103000000
H    -1.768000000     3.701000000     4.522000000
O     1.023000000     7.220000000     3.551000000
H     0.075000000     7.099000000     3.505000000
H     1.207000000     7.917000000     2.921000000
O    -7.105000000     5.988000000     3.203000000
H    -8.034000000     6.077000000     3.416000000
H    -7.083000000     5.925000000     2.248000000
O    -6.762000000     5.952000000    -1.618000000
H    -6.966000000     5.229000000    -2.212000000
H    -5.857000000     5.794000000    -1.351000000
O    -8.165000000     2.346000000     3.160000000
H    -8.874000000     1.937000000     2.664000000
H    -7.560000000     2.668000000     2.492000000
