215
-1453.95260
C    -5.098000000    -0.706000000    -1.456000000
H    -5.166000000    -1.645000000    -0.912000000
C    -4.074000000    -0.537000000    -2.427000000
C    -3.968000000     0.664000000    -3.060000000
H    -3.083000000     0.800000000    -3.676000000
C    -3.029000000    -1.685000000    -2.659000000
O    -3.457000000    -3.013000000    -2.424000000
H    -2.192000000    -1.486000000    -1.973000000
O    -2.479000000    -1.703000000    -3.962000000
C    -1.097000000    -1.884000000    -4.003000000
C    -0.394000000    -0.739000000    -4.336000000
H    -0.873000000     0.230000000    -4.447000000
C     1.009000000    -0.777000000    -4.138000000
O     1.696000000     0.357000000    -4.336000000
C     1.675000000    -2.024000000    -3.873000000
C     3.159000000    -2.154000000    -3.875000000
H     3.433000000    -3.206000000    -3.770000000
C     3.771000000    -1.584000000    -2.592000000
C     4.052000000    -2.487000000    -1.573000000
H     3.723000000    -3.503000000    -1.776000000
H     3.743000000    -1.739000000    -4.699000000
C     0.939000000    -3.150000000    -3.708000000
H     1.429000000    -4.098000000    -3.500000000
C    -0.425000000    -3.087000000    -3.766000000
C    -1.169000000    -4.377000000    -3.605000000
H    -0.542000000    -5.221000000    -3.899000000
H    -2.108000000    -4.348000000    -4.161000000
C    -1.468000000    -4.475000000    -2.093000000
C    -0.568000000    -4.941000000    -1.115000000
H     0.348000000    -5.410000000    -1.464000000
C    -2.662000000    -3.788000000    -1.619000000
C    -2.907000000    -3.709000000    -0.230000000
H    -3.862000000    -3.265000000     0.039000000
C    -1.986000000    -4.204000000     0.694000000
O    -2.228000000    -3.839000000     1.998000000
C    -1.405000000    -2.802000000     2.610000000
C    -2.227000000    -2.024000000     3.643000000
C    -1.651000000    -1.238000000     4.675000000
H    -0.573000000    -1.242000000     4.820000000
C    -3.661000000    -2.041000000     3.557000000
H    -4.115000000    -2.672000000     2.798000000
O    -0.245000000    -3.359000000     3.228000000
H    -1.050000000    -2.123000000     1.820000000
C    -0.794000000    -4.804000000     0.221000000
C     0.269000000    -5.364000000     1.148000000
H     0.751000000    -6.301000000     0.862000000
H    -0.248000000    -5.721000000     2.041000000
C     1.293000000    -4.248000000     1.533000000
C     2.573000000    -4.259000000     1.081000000
H     2.959000000    -5.044000000     0.435000000
C     0.966000000    -3.327000000     2.595000000
C     1.867000000    -2.448000000     3.077000000
H     1.659000000    -1.915000000     4.001000000
C     3.071000000    -2.305000000     2.406000000
O     3.883000000    -1.224000000     2.712000000
C     3.839000000    -0.077000000     1.839000000
C     3.612000000     1.251000000     2.559000000
C     3.056000000     1.286000000     3.892000000
H     2.811000000     0.320000000     4.326000000
C     3.866000000     2.463000000     1.901000000
H     4.225000000     2.541000000     0.877000000
O     4.958000000    -0.132000000     0.944000000
H     2.961000000    -0.138000000     1.178000000
C     3.464000000    -3.235000000     1.410000000
C     4.761000000    -3.076000000     0.680000000
H     5.082000000    -4.047000000     0.296000000
H     5.532000000    -2.722000000     1.368000000
C     4.562000000    -2.073000000    -0.382000000
C     4.737000000    -0.694000000    -0.261000000
C     4.536000000     0.209000000    -1.284000000
H     4.539000000     1.272000000    -1.058000000
C     4.102000000    -0.234000000    -2.471000000
O     3.757000000     0.700000000    -3.380000000
C     2.390000000     1.079000000    -3.285000000
H     1.980000000     0.798000000    -2.304000000
C     2.242000000     2.576000000    -3.573000000
C     1.013000000     3.116000000    -3.998000000
H     0.221000000     2.449000000    -4.329000000
C     3.305000000     3.473000000    -3.267000000
H     4.238000000     3.053000000    -2.900000000
C     3.043000000     4.861000000    -3.226000000
O     3.995000000     5.728000000    -2.807000000
C     1.838000000     5.328000000    -3.751000000
H     1.602000000     6.388000000    -3.801000000
C     0.799000000     4.461000000    -4.078000000
O    -0.429000000     5.003000000    -4.418000000
C    -1.493000000     4.208000000    -4.786000000
C    -2.520000000     3.906000000    -3.915000000
H    -2.518000000     4.226000000    -2.876000000
C    -1.654000000     3.995000000    -6.148000000
H    -0.912000000     4.405000000    -6.829000000
C    -2.812000000     3.351000000    -6.625000000
H    -2.928000000     3.136000000    -7.684000000
C    -3.823000000     3.097000000    -5.729000000
H    -4.675000000     2.470000000    -5.978000000
C    -3.666000000     3.232000000    -4.341000000
O    -4.722000000     2.876000000    -3.509000000
C    -4.798000000     1.658000000    -2.780000000
C    -5.874000000     1.471000000    -1.895000000
H    -6.618000000     2.212000000    -1.614000000
C    -6.106000000     0.266000000    -1.299000000
O    -7.151000000     0.284000000    -0.377000000
C    -7.184000000    -0.546000000     0.712000000
C    -6.374000000    -0.308000000     1.849000000
H    -5.829000000     0.625000000     1.967000000
C    -8.129000000    -1.579000000     0.757000000
H    -8.795000000    -1.849000000    -0.059000000
C    -8.135000000    -2.502000000     1.741000000
H    -8.792000000    -3.368000000     1.737000000
C    -7.233000000    -2.356000000     2.835000000
H    -7.278000000    -3.113000000     3.614000000
C    -6.409000000    -1.215000000     2.907000000
O    -5.710000000    -0.865000000     4.036000000
C    -4.351000000    -1.044000000     4.203000000
C    -3.742000000    -0.181000000     5.099000000
H    -4.311000000     0.564000000     5.650000000
C    -2.420000000    -0.324000000     5.372000000
O    -1.930000000     0.606000000     6.216000000
C    -0.631000000     0.652000000     6.708000000
C     0.181000000     1.552000000     6.113000000
H    -0.193000000     2.096000000     5.250000000
C    -0.251000000    -0.043000000     7.867000000
H    -0.923000000    -0.766000000     8.323000000
C     1.096000000     0.057000000     8.276000000
H     1.358000000    -0.536000000     9.149000000
C     2.012000000     0.890000000     7.631000000
H     3.045000000     0.953000000     7.964000000
C     1.561000000     1.607000000     6.507000000
O     2.433000000     2.539000000     5.894000000
C     2.756000000     2.465000000     4.565000000
C     3.182000000     3.649000000     3.975000000
H     2.998000000     4.587000000     4.493000000
C     3.709000000     3.658000000     2.660000000
O     3.754000000     4.895000000     2.046000000
C     4.456000000     5.205000000     0.846000000
C     5.854000000     5.060000000     0.868000000
H     6.430000000     4.774000000     1.744000000
C     6.533000000     5.371000000    -0.292000000
H     7.618000000     5.301000000    -0.279000000
C     5.958000000     5.569000000    -1.519000000
H     6.596000000     5.766000000    -2.377000000
C     4.590000000     5.636000000    -1.568000000
C     3.857000000     5.445000000    -0.337000000
H     2.773000000     5.509000000    -0.393000000
C    -0.547000000     0.560000000     1.515000000
H    -0.300000000     0.547000000     2.573000000
C     0.104000000    -0.234000000     0.555000000
H     0.855000000    -0.967000000     0.841000000
C    -0.232000000    -0.077000000    -0.768000000
H     0.325000000    -0.752000000    -1.456000000
C    -1.199000000     0.847000000    -1.145000000
H    -1.417000000     0.971000000    -2.203000000
C    -1.908000000     1.622000000    -0.217000000
H    -2.648000000     2.330000000    -0.583000000
C    -1.614000000     1.472000000     1.182000000
C    -2.437000000     2.333000000     2.105000000
O    -3.504000000     2.742000000     1.764000000
O    -1.851000000     2.884000000     3.022000000
O    -0.318000000     4.650000000     1.726000000
H    -0.725000000     3.959000000     2.248000000
H    -0.059000000     5.313000000     2.366000000
O    -0.326000000     5.002000000     7.893000000
H    -1.014000000     5.635000000     8.098000000
H    -0.379000000     4.890000000     6.944000000
O    -3.363000000     1.657000000     8.430000000
H    -3.336000000     2.043000000     7.555000000
H    -3.294000000     0.714000000     8.278000000
O    -3.460000000     3.189000000     6.072000000
H    -4.123000000     3.124000000     5.385000000
H    -2.627000000     3.201000000     5.601000000
O    -5.413000000     3.539000000     0.306000000
H    -5.787000000     2.664000000     0.198000000
H    -4.693000000     3.416000000     0.925000000
O    -8.027000000     3.363000000     1.318000000
H    -8.585000000     4.090000000     1.042000000
H    -7.200000000     3.509000000     0.860000000
O    -3.296000000     6.923000000     4.582000000
H    -3.474000000     7.860000000     4.495000000
H    -3.573000000     6.548000000     3.746000000
O    -0.352000000     5.147000000    -0.896000000
H    -0.519000000     4.965000000     0.029000000
H     0.098000000     4.365000000    -1.216000000
O    -6.825000000     2.665000000     6.377000000
H    -6.306000000     2.560000000     5.579000000
H    -7.704000000     2.877000000     6.064000000
O     1.087000000     2.701000000    -0.297000000
H     0.571000000     1.908000000    -0.156000000
H     0.942000000     3.224000000     0.491000000
O    -3.324000000     5.541000000     2.090000000
H    -3.098000000     4.657000000     2.380000000
H    -3.402000000     5.467000000     1.139000000
O    -1.807000000     7.070000000    -2.319000000
H    -1.231000000     7.188000000    -3.075000000
H    -1.315000000     6.497000000    -1.731000000
O    -5.095000000     3.037000000     3.960000000
H    -4.423000000     2.908000000     3.291000000
H    -5.488000000     3.883000000     3.745000000
O    -0.553000000     7.223000000     3.373000000
H    -1.217000000     7.435000000     4.030000000
H    -0.771000000     7.779000000     2.625000000
O    -0.809000000     4.512000000     4.776000000
H    -1.291000000     5.308000000     4.551000000
H    -1.246000000     3.820000000     4.280000000
O     2.550000000     7.461000000     3.759000000
H     1.779000000     6.895000000     3.785000000
H     2.325000000     8.143000000     3.126000000
O    -6.541000000     5.649000000     4.293000000
H    -7.491000000     5.561000000     4.378000000
H    -6.418000000     6.140000000     3.481000000
O    -6.106000000     5.507000000    -2.741000000
H    -5.570000000     4.766000000    -2.458000000
H    -5.761000000     5.736000000    -3.604000000
O    -9.142000000     2.789000000     4.038000000
H    -9.834000000     2.134000000     3.940000000
H    -8.764000000     2.870000000     3.162000000
