215
-1445.58990
C    -4.990000000    -1.153000000    -1.670000000
H    -5.169000000    -2.025000000    -1.045000000
C    -3.974000000    -1.089000000    -2.606000000
C    -3.929000000     0.048000000    -3.424000000
H    -3.123000000     0.213000000    -4.134000000
C    -2.853000000    -2.077000000    -2.624000000
O    -3.238000000    -3.358000000    -2.073000000
H    -1.997000000    -1.585000000    -2.139000000
O    -2.305000000    -2.416000000    -3.913000000
C    -0.943000000    -2.263000000    -3.897000000
C    -0.358000000    -1.048000000    -4.291000000
H    -1.029000000    -0.284000000    -4.676000000
C     0.995000000    -0.894000000    -4.181000000
O     1.544000000     0.326000000    -4.520000000
C     1.787000000    -1.987000000    -3.841000000
C     3.230000000    -1.957000000    -3.838000000
H     3.627000000    -2.944000000    -4.086000000
C     3.804000000    -1.380000000    -2.527000000
C     4.375000000    -2.252000000    -1.564000000
H     4.516000000    -3.306000000    -1.789000000
H     3.432000000    -1.409000000    -4.761000000
C     1.233000000    -3.255000000    -3.560000000
H     1.900000000    -4.087000000    -3.351000000
C    -0.182000000    -3.393000000    -3.592000000
C    -0.853000000    -4.622000000    -3.101000000
H    -0.074000000    -5.370000000    -3.262000000
H    -1.712000000    -4.910000000    -3.710000000
C    -1.076000000    -4.512000000    -1.608000000
C    -0.175000000    -5.009000000    -0.712000000
H     0.627000000    -5.656000000    -1.060000000
C    -2.321000000    -3.947000000    -1.195000000
C    -2.532000000    -3.780000000     0.108000000
H    -3.418000000    -3.265000000     0.470000000
C    -1.609000000    -4.198000000     1.090000000
O    -1.780000000    -3.939000000     2.412000000
C    -1.122000000    -2.786000000     2.981000000
C    -2.072000000    -1.912000000     3.860000000
C    -1.544000000    -1.213000000     4.926000000
H    -0.464000000    -1.217000000     5.049000000
C    -3.457000000    -1.723000000     3.561000000
H    -3.955000000    -2.341000000     2.819000000
O     0.022000000    -3.232000000     3.673000000
H    -0.810000000    -2.198000000     2.106000000
C    -0.444000000    -4.781000000     0.640000000
C     0.638000000    -5.198000000     1.621000000
H     1.065000000    -6.134000000     1.252000000
H     0.054000000    -5.587000000     2.457000000
C     1.659000000    -4.119000000     1.999000000
C     2.928000000    -4.014000000     1.347000000
H     3.142000000    -4.808000000     0.637000000
C     1.307000000    -3.239000000     3.048000000
C     2.223000000    -2.248000000     3.496000000
H     2.126000000    -1.582000000     4.350000000
C     3.387000000    -2.036000000     2.721000000
O     4.114000000    -0.849000000     2.904000000
C     3.959000000     0.207000000     1.926000000
C     3.737000000     1.558000000     2.566000000
C     3.011000000     1.558000000     3.756000000
H     2.656000000     0.597000000     4.121000000
C     4.098000000     2.793000000     2.032000000
H     4.666000000     2.748000000     1.106000000
O     4.994000000     0.293000000     1.002000000
H     3.005000000    -0.090000000     1.467000000
C     3.783000000    -2.886000000     1.645000000
C     5.029000000    -2.637000000     0.826000000
H     5.425000000    -3.602000000     0.500000000
H     5.921000000    -2.271000000     1.338000000
C     4.704000000    -1.692000000    -0.331000000
C     4.782000000    -0.310000000    -0.187000000
C     4.451000000     0.539000000    -1.238000000
H     4.492000000     1.625000000    -1.248000000
C     3.897000000    -0.020000000    -2.394000000
O     3.518000000     0.870000000    -3.368000000
C     2.100000000     1.150000000    -3.509000000
H     1.700000000     0.999000000    -2.496000000
C     1.764000000     2.545000000    -3.787000000
C     0.604000000     2.945000000    -4.483000000
H    -0.042000000     2.262000000    -5.029000000
C     2.381000000     3.482000000    -2.993000000
H     3.271000000     3.244000000    -2.417000000
C     1.942000000     4.811000000    -2.944000000
O     2.511000000     5.740000000    -2.123000000
C     0.787000000     5.182000000    -3.693000000
H     0.401000000     6.192000000    -3.589000000
C     0.226000000     4.293000000    -4.553000000
O    -0.896000000     4.678000000    -5.235000000
C    -1.988000000     3.908000000    -5.522000000
C    -2.741000000     3.275000000    -4.485000000
H    -2.379000000     3.359000000    -3.463000000
C    -2.358000000     3.863000000    -6.846000000
H    -1.692000000     4.376000000    -7.536000000
C    -3.664000000     3.412000000    -7.118000000
H    -4.044000000     3.421000000    -8.136000000
C    -4.469000000     2.896000000    -6.127000000
H    -5.384000000     2.394000000    -6.433000000
C    -4.006000000     2.755000000    -4.827000000
O    -4.947000000     2.314000000    -3.922000000
C    -4.894000000     1.114000000    -3.249000000
C    -5.895000000     0.941000000    -2.268000000
H    -6.731000000     1.635000000    -2.242000000
C    -5.971000000    -0.219000000    -1.535000000
O    -7.076000000    -0.332000000    -0.638000000
C    -6.999000000    -1.000000000     0.558000000
C    -6.308000000    -0.506000000     1.644000000
H    -5.786000000     0.429000000     1.462000000
C    -7.841000000    -2.112000000     0.643000000
H    -8.568000000    -2.429000000    -0.100000000
C    -7.740000000    -2.774000000     1.913000000
H    -8.306000000    -3.696000000     2.028000000
C    -7.054000000    -2.269000000     3.022000000
H    -7.016000000    -2.884000000     3.917000000
C    -6.354000000    -1.098000000     2.909000000
O    -5.609000000    -0.698000000     4.018000000
C    -4.255000000    -0.879000000     4.301000000
C    -3.705000000    -0.230000000     5.415000000
H    -4.303000000     0.391000000     6.077000000
C    -2.308000000    -0.287000000     5.670000000
O    -1.797000000     0.586000000     6.647000000
C    -0.446000000     0.702000000     6.913000000
C     0.218000000     1.694000000     6.295000000
H    -0.322000000     2.459000000     5.743000000
C     0.180000000    -0.162000000     7.810000000
H    -0.460000000    -0.881000000     8.315000000
C     1.582000000    -0.105000000     7.869000000
H     2.200000000    -0.803000000     8.428000000
C     2.281000000     0.845000000     7.121000000
H     3.363000000     0.906000000     7.207000000
C     1.593000000     1.747000000     6.306000000
O     2.280000000     2.767000000     5.739000000
C     2.822000000     2.771000000     4.493000000
C     3.487000000     3.935000000     4.105000000
H     3.383000000     4.815000000     4.735000000
C     3.953000000     4.008000000     2.762000000
O     4.289000000     5.256000000     2.279000000
C     4.437000000     5.506000000     0.939000000
C     5.697000000     5.751000000     0.404000000
H     6.464000000     5.678000000     1.171000000
C     5.964000000     5.996000000    -0.940000000
H     6.979000000     6.046000000    -1.326000000
C     4.821000000     6.016000000    -1.817000000
H     4.937000000     6.256000000    -2.871000000
C     3.584000000     5.646000000    -1.325000000
C     3.376000000     5.446000000     0.011000000
H     2.375000000     5.280000000     0.401000000
C    -0.648000000     0.877000000     1.837000000
H    -0.344000000     1.138000000     2.848000000
C     0.067000000    -0.083000000     1.211000000
H     0.838000000    -0.630000000     1.747000000
C    -0.058000000    -0.241000000    -0.197000000
H     0.539000000    -0.952000000    -0.692000000
C    -1.002000000     0.493000000    -0.903000000
H    -1.126000000     0.369000000    -1.976000000
C    -1.775000000     1.431000000    -0.261000000
H    -2.422000000     2.078000000    -0.849000000
C    -1.631000000     1.622000000     1.114000000
C    -2.454000000     2.630000000     1.799000000
O    -3.374000000     3.159000000     1.231000000
O    -2.029000000     3.012000000     2.910000000
O     0.403000000     4.350000000     2.344000000
H    -0.416000000     3.895000000     2.539000000
H     0.925000000     3.708000000     1.864000000
O     1.151000000     5.890000000     6.264000000
H     1.560000000     6.398000000     5.564000000
H     0.349000000     5.544000000     5.873000000
O    -2.527000000     4.124000000     7.484000000
H    -3.066000000     3.368000000     7.250000000
H    -2.177000000     4.436000000     6.650000000
O    -5.738000000     3.788000000     2.150000000
H    -4.928000000     3.434000000     1.781000000
H    -5.458000000     4.559000000     2.645000000
O    -7.268000000     4.691000000    -0.234000000
H    -6.968000000     5.598000000    -0.163000000
H    -6.687000000     4.201000000     0.348000000
O    -1.967000000     7.425000000     4.170000000
H    -1.688000000     7.797000000     3.333000000
H    -2.899000000     7.243000000     4.053000000
O    -2.763000000     8.750000000    -0.172000000
H    -3.062000000     7.859000000    -0.356000000
H    -3.190000000     9.288000000    -0.838000000
O    -0.502000000     5.529000000    -0.156000000
H     0.171000000     6.058000000    -0.585000000
H    -0.053000000     5.129000000     0.588000000
O    -5.136000000     2.571000000     7.213000000
H    -5.166000000     2.702000000     6.266000000
H    -6.054000000     2.525000000     7.478000000
O     1.542000000     2.784000000     0.369000000
H     1.147000000     1.912000000     0.395000000
H     1.369000000     3.099000000    -0.518000000
O    -3.213000000     5.598000000     0.184000000
H    -3.193000000     4.679000000     0.448000000
H    -2.330000000     5.772000000    -0.144000000
O    -7.794000000     0.785000000     5.016000000
H    -7.001000000     0.282000000     4.830000000
H    -8.452000000     0.124000000     5.231000000
O    -4.806000000     3.079000000     4.717000000
H    -5.471000000     2.949000000     4.041000000
H    -3.985000000     2.822000000     4.298000000
O    -0.823000000     7.887000000     1.935000000
H    -0.166000000     7.977000000     1.244000000
H    -1.502000000     7.335000000     1.549000000
O    -1.466000000     4.795000000     5.128000000
H    -1.732000000     5.630000000     4.744000000
H    -1.312000000     4.224000000     4.376000000
O     1.399000000     6.867000000     3.397000000
H     0.705000000     7.484000000     3.165000000
H     0.993000000     6.005000000     3.305000000
O    -4.510000000     6.638000000     4.456000000
H    -5.298000000     6.121000000     4.622000000
H    -4.824000000     7.540000000     4.390000000
O    -5.704000000     7.032000000     0.219000000
H    -4.866000000     6.587000000     0.343000000
H    -5.633000000     7.439000000    -0.645000000
O    -8.979000000     2.672000000     3.060000000
H    -8.692000000     2.053000000     3.731000000
H    -8.242000000     3.274000000     2.958000000
