215
-1463.62739
C    -5.398000000    -0.854000000    -0.651000000
H    -5.221000000    -1.785000000    -0.119000000
C    -4.570000000    -0.360000000    -1.678000000
C    -4.711000000     0.947000000    -2.198000000
H    -4.060000000     1.299000000    -2.995000000
C    -3.431000000    -1.222000000    -2.330000000
O    -3.771000000    -2.619000000    -2.168000000
H    -2.551000000    -0.909000000    -1.749000000
O    -3.258000000    -0.815000000    -3.702000000
C    -1.918000000    -0.669000000    -4.091000000
C    -1.311000000     0.609000000    -4.137000000
H    -1.828000000     1.508000000    -3.810000000
C     0.035000000     0.740000000    -4.405000000
O     0.571000000     1.960000000    -4.297000000
C     0.830000000    -0.363000000    -4.723000000
C     2.355000000    -0.254000000    -4.915000000
H     2.728000000    -1.202000000    -5.308000000
C     3.151000000    -0.142000000    -3.614000000
C     3.564000000    -1.278000000    -2.906000000
H     3.348000000    -2.238000000    -3.368000000
H     2.580000000     0.577000000    -5.586000000
C     0.287000000    -1.632000000    -4.600000000
H     0.957000000    -2.469000000    -4.780000000
C    -1.122000000    -1.797000000    -4.314000000
C    -1.732000000    -3.162000000    -4.261000000
H    -1.176000000    -3.743000000    -4.999000000
H    -2.698000000    -3.042000000    -4.756000000
C    -1.747000000    -3.708000000    -2.848000000
C    -0.635000000    -4.447000000    -2.332000000
H     0.137000000    -4.713000000    -3.049000000
C    -2.757000000    -3.434000000    -1.875000000
C    -2.635000000    -3.812000000    -0.521000000
H    -3.390000000    -3.530000000     0.209000000
C    -1.581000000    -4.520000000    -0.079000000
O    -1.466000000    -4.706000000     1.314000000
C    -0.669000000    -3.640000000     1.997000000
C    -1.415000000    -3.067000000     3.166000000
C    -0.637000000    -2.729000000     4.276000000
H     0.445000000    -2.818000000     4.334000000
C    -2.850000000    -2.838000000     3.161000000
H    -3.434000000    -2.966000000     2.253000000
O     0.630000000    -4.124000000     2.350000000
H    -0.440000000    -2.830000000     1.289000000
C    -0.521000000    -4.840000000    -0.970000000
C     0.768000000    -5.460000000    -0.442000000
H     1.224000000    -6.121000000    -1.183000000
H     0.568000000    -6.217000000     0.320000000
C     1.773000000    -4.460000000     0.175000000
C     2.740000000    -3.990000000    -0.698000000
H     2.776000000    -4.278000000    -1.746000000
C     1.743000000    -3.981000000     1.550000000
C     2.690000000    -3.095000000     2.003000000
H     2.479000000    -2.536000000     2.911000000
C     3.677000000    -2.651000000     1.135000000
O     4.481000000    -1.621000000     1.711000000
C     4.214000000    -0.293000000     1.199000000
C     4.361000000     0.710000000     2.341000000
C     3.955000000     0.395000000     3.644000000
H     3.630000000    -0.631000000     3.795000000
C     4.631000000     2.050000000     2.042000000
H     5.012000000     2.334000000     1.064000000
O     5.169000000    -0.010000000     0.110000000
H     3.180000000    -0.202000000     0.834000000
C     3.773000000    -3.150000000    -0.203000000
C     4.790000000    -2.614000000    -1.159000000
H     5.043000000    -3.304000000    -1.967000000
H     5.732000000    -2.454000000    -0.629000000
C     4.302000000    -1.315000000    -1.758000000
C     4.645000000    -0.100000000    -1.166000000
C     4.166000000     1.070000000    -1.788000000
H     4.372000000     1.969000000    -1.214000000
C     3.428000000     1.079000000    -3.014000000
O     2.854000000     2.275000000    -3.399000000
C     1.417000000     2.396000000    -3.190000000
H     1.147000000     1.708000000    -2.375000000
C     1.069000000     3.806000000    -2.687000000
C    -0.286000000     4.227000000    -2.603000000
H    -1.073000000     3.600000000    -3.016000000
C     2.023000000     4.771000000    -2.242000000
H     3.096000000     4.603000000    -2.214000000
C     1.681000000     5.963000000    -1.631000000
O     2.689000000     6.778000000    -1.068000000
C     0.317000000     6.332000000    -1.504000000
H     0.057000000     7.285000000    -1.051000000
C    -0.639000000     5.455000000    -1.977000000
O    -2.011000000     5.761000000    -1.675000000
C    -2.971000000     5.289000000    -2.519000000
C    -3.957000000     4.546000000    -1.982000000
H    -3.977000000     4.453000000    -0.899000000
C    -2.883000000     5.433000000    -3.926000000
H    -2.023000000     5.916000000    -4.382000000
C    -3.787000000     4.813000000    -4.765000000
H    -3.870000000     4.942000000    -5.841000000
C    -4.806000000     3.985000000    -4.160000000
H    -5.620000000     3.634000000    -4.789000000
C    -4.889000000     3.829000000    -2.772000000
O    -5.854000000     3.061000000    -2.138000000
C    -5.661000000     1.780000000    -1.659000000
C    -6.560000000     1.282000000    -0.712000000
H    -7.354000000     1.936000000    -0.363000000
C    -6.317000000    -0.001000000    -0.146000000
O    -7.273000000    -0.398000000     0.765000000
C    -6.937000000    -1.518000000     1.501000000
C    -6.167000000    -1.389000000     2.677000000
H    -5.704000000    -0.465000000     3.013000000
C    -7.443000000    -2.718000000     1.127000000
H    -8.009000000    -2.867000000     0.210000000
C    -7.022000000    -3.857000000     1.772000000
H    -7.379000000    -4.812000000     1.395000000
C    -6.116000000    -3.795000000     2.846000000
H    -5.734000000    -4.711000000     3.288000000
C    -5.768000000    -2.560000000     3.274000000
O    -4.865000000    -2.368000000     4.395000000
C    -3.495000000    -2.549000000     4.357000000
C    -2.711000000    -2.284000000     5.537000000
H    -3.141000000    -1.951000000     6.479000000
C    -1.275000000    -2.303000000     5.477000000
O    -0.477000000    -1.882000000     6.585000000
C     0.871000000    -1.712000000     6.551000000
C     1.464000000    -0.425000000     6.303000000
H     0.749000000     0.357000000     6.062000000
C     1.736000000    -2.823000000     6.702000000
H     1.330000000    -3.819000000     6.859000000
C     3.118000000    -2.647000000     6.569000000
H     3.746000000    -3.530000000     6.660000000
C     3.664000000    -1.377000000     6.324000000
H     4.735000000    -1.266000000     6.175000000
C     2.817000000    -0.272000000     6.246000000
O     3.338000000     0.973000000     5.903000000
C     3.843000000     1.337000000     4.632000000
C     4.020000000     2.664000000     4.323000000
H     3.857000000     3.373000000     5.131000000
C     4.383000000     3.007000000     2.982000000
O     4.700000000     4.308000000     2.638000000
C     4.823000000     4.845000000     1.370000000
C     6.037000000     5.405000000     1.066000000
H     6.935000000     5.166000000     1.630000000
C     6.166000000     6.206000000    -0.096000000
H     7.136000000     6.526000000    -0.468000000
C     5.003000000     6.693000000    -0.737000000
H     5.076000000     7.473000000    -1.491000000
C     3.756000000     6.267000000    -0.378000000
C     3.604000000     5.252000000     0.682000000
H     2.734000000     5.113000000     1.318000000
C    -1.256000000     0.447000000     2.408000000
H    -1.357000000     0.174000000     3.455000000
C    -0.149000000    -0.079000000     1.687000000
H     0.635000000    -0.665000000     2.159000000
C    -0.039000000     0.180000000     0.327000000
H     0.772000000    -0.150000000    -0.268000000
C    -1.005000000     0.930000000    -0.303000000
H    -0.900000000     1.071000000    -1.375000000
C    -2.024000000     1.528000000     0.420000000
H    -2.835000000     2.029000000    -0.104000000
C    -2.204000000     1.290000000     1.803000000
C    -3.345000000     1.982000000     2.564000000
O    -4.285000000     2.390000000     1.933000000
O    -3.264000000     2.011000000     3.780000000
O    -1.419000000     5.347000000     1.340000000
H    -0.880000000     4.747000000     1.854000000
H    -1.338000000     5.031000000     0.440000000
O    -3.275000000     3.926000000     7.398000000
H    -4.059000000     3.585000000     6.968000000
H    -2.564000000     3.738000000     6.785000000
O    -2.372000000     8.194000000     5.024000000
H    -2.831000000     7.470000000     5.449000000
H    -1.787000000     7.771000000     4.396000000
O    -6.828000000     2.896000000     2.353000000
H    -6.997000000     2.629000000     3.257000000
H    -5.888000000     2.759000000     2.235000000
O    -9.063000000     1.837000000     1.480000000
H    -8.521000000     1.060000000     1.344000000
H    -8.477000000     2.469000000     1.895000000
O     1.211000000     4.048000000     5.310000000
H     1.118000000     4.987000000     5.473000000
H     1.840000000     3.753000000     5.968000000
O    -6.015000000     0.506000000     7.480000000
H    -5.084000000     0.568000000     7.268000000
H    -6.461000000     0.665000000     6.648000000
O    -4.014000000     5.051000000     1.970000000
H    -4.148000000     4.123000000     1.777000000
H    -3.090000000     5.205000000     1.776000000
O    -1.685000000     3.359000000     5.472000000
H    -2.153000000     3.089000000     4.682000000
H    -0.766000000     3.394000000     5.206000000
O    -8.076000000     4.333000000     6.072000000
H    -8.871000000     4.672000000     5.661000000
H    -7.391000000     4.950000000     5.813000000
O    -3.634000000     0.443000000     6.061000000
H    -3.065000000    -0.323000000     6.140000000
H    -3.173000000     1.022000000     5.454000000
O    -5.095000000     3.061000000     5.512000000
H    -5.931000000     2.597000000     5.533000000
H    -4.595000000     2.625000000     4.822000000
O    -4.403000000     7.719000000     2.101000000
H    -4.307000000     6.771000000     2.007000000
H    -4.770000000     7.838000000     2.977000000
O     0.251000000     3.754000000     2.837000000
H     0.705000000     2.952000000     2.581000000
H     0.549000000     3.924000000     3.730000000
O    -6.467000000     6.435000000     5.531000000
H    -6.467000000     6.609000000     6.472000000
H    -5.569000000     6.166000000     5.338000000
O    -1.450000000     8.246000000     1.473000000
H    -2.353000000     8.526000000     1.621000000
H    -1.514000000     7.303000000     1.320000000
O    -7.403000000     1.629000000     4.996000000
H    -7.856000000     2.285000000     5.526000000
H    -8.014000000     0.894000000     4.952000000
O    -3.958000000     5.833000000     4.825000000
H    -3.986000000     5.403000000     3.971000000
H    -3.982000000     5.113000000     5.456000000
O    -7.431000000     5.196000000     0.857000000
H    -6.903000000     4.439000000     1.112000000
H    -7.884000000     4.915000000     0.062000000
