215
-1432.26239
C    -4.664000000    -0.871000000    -0.424000000
H    -4.329000000    -1.799000000     0.032000000
C    -4.100000000    -0.542000000    -1.637000000
C    -4.382000000     0.725000000    -2.131000000
H    -3.777000000     1.024000000    -2.983000000
C    -3.045000000    -1.358000000    -2.267000000
O    -3.214000000    -2.783000000    -2.165000000
H    -2.092000000    -1.180000000    -1.747000000
O    -2.923000000    -1.192000000    -3.704000000
C    -1.644000000    -1.097000000    -4.187000000
C    -1.224000000     0.191000000    -4.376000000
H    -1.906000000     1.030000000    -4.258000000
C     0.073000000     0.505000000    -4.702000000
O     0.424000000     1.865000000    -4.819000000
C     0.993000000    -0.522000000    -4.844000000
C     2.455000000    -0.225000000    -5.004000000
H     2.914000000    -1.052000000    -5.551000000
C     3.062000000     0.047000000    -3.689000000
C     3.642000000    -1.014000000    -2.999000000
H     3.625000000    -1.981000000    -3.496000000
H     2.540000000     0.578000000    -5.739000000
C     0.575000000    -1.819000000    -4.654000000
H     1.322000000    -2.594000000    -4.803000000
C    -0.726000000    -2.134000000    -4.228000000
C    -1.197000000    -3.606000000    -4.025000000
H    -0.483000000    -4.265000000    -4.523000000
H    -2.171000000    -3.770000000    -4.492000000
C    -1.117000000    -3.915000000    -2.541000000
C     0.008000000    -4.572000000    -2.036000000
H     0.910000000    -4.758000000    -2.612000000
C    -2.194000000    -3.583000000    -1.679000000
C    -2.057000000    -3.848000000    -0.293000000
H    -2.868000000    -3.466000000     0.321000000
C    -0.883000000    -4.532000000     0.217000000
O    -0.837000000    -4.753000000     1.509000000
C    -0.195000000    -3.726000000     2.244000000
C    -0.943000000    -3.347000000     3.494000000
C    -0.192000000    -2.892000000     4.634000000
H     0.881000000    -2.722000000     4.662000000
C    -2.299000000    -3.336000000     3.550000000
H    -2.894000000    -3.565000000     2.670000000
O     1.056000000    -4.232000000     2.607000000
H     0.023000000    -2.851000000     1.616000000
C     0.126000000    -4.832000000    -0.670000000
C     1.411000000    -5.384000000    -0.078000000
H     1.960000000    -5.813000000    -0.919000000
H     1.202000000    -6.116000000     0.704000000
C     2.285000000    -4.273000000     0.513000000
C     3.164000000    -3.704000000    -0.368000000
H     3.220000000    -4.032000000    -1.403000000
C     2.158000000    -3.851000000     1.824000000
C     2.916000000    -2.768000000     2.247000000
H     2.789000000    -2.316000000     3.228000000
C     3.695000000    -2.092000000     1.320000000
O     4.329000000    -0.916000000     1.775000000
C     3.800000000     0.287000000     1.235000000
C     3.783000000     1.346000000     2.330000000
C     3.572000000     0.948000000     3.664000000
H     3.515000000    -0.090000000     3.982000000
C     3.721000000     2.677000000     2.059000000
H     3.803000000     2.917000000     1.002000000
O     4.605000000     0.829000000     0.127000000
H     2.756000000     0.128000000     0.927000000
C     3.906000000    -2.593000000     0.059000000
C     4.861000000    -1.932000000    -0.982000000
H     5.295000000    -2.670000000    -1.660000000
H     5.817000000    -1.658000000    -0.531000000
C     4.306000000    -0.724000000    -1.748000000
C     4.249000000     0.571000000    -1.199000000
C     3.711000000     1.621000000    -1.971000000
H     3.524000000     2.577000000    -1.489000000
C     3.093000000     1.338000000    -3.178000000
O     2.497000000     2.427000000    -3.692000000
C     1.067000000     2.414000000    -3.537000000
H     0.845000000     1.838000000    -2.627000000
C     0.555000000     3.822000000    -3.182000000
C    -0.727000000     4.147000000    -3.613000000
H    -1.271000000     3.519000000    -4.315000000
C     1.215000000     4.634000000    -2.208000000
H     2.150000000     4.337000000    -1.741000000
C     0.595000000     5.809000000    -1.791000000
O     1.284000000     6.590000000    -0.832000000
C    -0.567000000     6.190000000    -2.308000000
H    -1.114000000     7.061000000    -1.957000000
C    -1.282000000     5.364000000    -3.185000000
O    -2.440000000     5.828000000    -3.801000000
C    -3.465000000     4.987000000    -4.045000000
C    -4.103000000     4.445000000    -2.966000000
H    -3.873000000     4.786000000    -1.961000000
C    -3.652000000     4.440000000    -5.345000000
H    -3.112000000     4.873000000    -6.184000000
C    -4.531000000     3.366000000    -5.482000000
H    -4.533000000     3.002000000    -6.507000000
C    -5.223000000     2.876000000    -4.398000000
H    -5.945000000     2.065000000    -4.440000000
C    -4.999000000     3.391000000    -3.161000000
O    -5.568000000     2.826000000    -1.985000000
C    -5.293000000     1.548000000    -1.555000000
C    -5.966000000     1.121000000    -0.425000000
H    -6.828000000     1.695000000    -0.096000000
C    -5.741000000    -0.130000000     0.080000000
O    -6.593000000    -0.664000000     1.086000000
C    -6.313000000    -1.751000000     1.832000000
C    -5.424000000    -1.671000000     2.920000000
H    -5.119000000    -0.749000000     3.408000000
C    -6.719000000    -3.076000000     1.409000000
H    -7.393000000    -3.198000000     0.565000000
C    -6.364000000    -4.226000000     2.162000000
H    -6.664000000    -5.197000000     1.776000000
C    -5.568000000    -4.090000000     3.285000000
H    -5.364000000    -4.983000000     3.870000000
C    -5.167000000    -2.846000000     3.623000000
O    -4.415000000    -2.798000000     4.774000000
C    -3.025000000    -2.939000000     4.742000000
C    -2.305000000    -2.678000000     5.867000000
H    -2.818000000    -2.490000000     6.807000000
C    -0.898000000    -2.477000000     5.761000000
O    -0.156000000    -2.039000000     6.900000000
C     1.119000000    -1.496000000     6.882000000
C     1.414000000    -0.192000000     6.447000000
H     0.555000000     0.413000000     6.169000000
C     2.099000000    -2.373000000     7.217000000
H     1.879000000    -3.411000000     7.456000000
C     3.418000000    -1.915000000     7.104000000
H     4.215000000    -2.587000000     7.410000000
C     3.698000000    -0.622000000     6.741000000
H     4.718000000    -0.258000000     6.645000000
C     2.687000000     0.260000000     6.369000000
O     2.987000000     1.546000000     5.919000000
C     3.416000000     1.941000000     4.650000000
C     3.495000000     3.303000000     4.346000000
H     3.488000000     4.130000000     5.052000000
C     3.676000000     3.686000000     3.055000000
O     3.911000000     5.020000000     2.817000000
C     3.860000000     5.552000000     1.554000000
C     4.981000000     5.601000000     0.741000000
H     5.948000000     5.298000000     1.136000000
C     4.911000000     6.064000000    -0.572000000
H     5.827000000     5.947000000    -1.145000000
C     3.736000000     6.473000000    -1.150000000
H     3.558000000     6.611000000    -2.213000000
C     2.577000000     6.373000000    -0.356000000
C     2.679000000     5.917000000     0.939000000
H     1.809000000     5.785000000     1.577000000
C    -1.518000000     0.811000000     2.694000000
H    -1.438000000     0.686000000     3.771000000
C    -0.634000000     0.027000000     1.948000000
H     0.157000000    -0.591000000     2.365000000
C    -0.638000000     0.122000000     0.552000000
H     0.060000000    -0.410000000    -0.045000000
C    -1.564000000     0.962000000    -0.075000000
H    -1.563000000     1.057000000    -1.158000000
C    -2.398000000     1.771000000     0.720000000
H    -3.029000000     2.565000000     0.330000000
C    -2.483000000     1.599000000     2.073000000
C    -3.473000000     2.427000000     2.867000000
O    -4.221000000     3.179000000     2.346000000
O    -3.479000000     2.397000000     4.104000000
O    -0.879000000     5.619000000     0.964000000
H    -0.816000000     5.293000000     1.862000000
H    -0.148000000     5.205000000     0.507000000
O    -5.247000000     3.208000000     7.988000000
H    -5.385000000     3.525000000     7.096000000
H    -5.674000000     2.351000000     8.007000000
O    -1.823000000     7.823000000     4.162000000
H    -2.526000000     7.192000000     4.006000000
H    -1.713000000     7.828000000     5.113000000
O    -2.641000000     0.091000000     7.453000000
H    -1.826000000    -0.411000000     7.417000000
H    -2.380000000     0.987000000     7.240000000
O    -6.920000000     3.052000000     2.390000000
H    -7.179000000     2.220000000     2.788000000
H    -5.970000000     3.085000000     2.499000000
O    -0.009000000     5.136000000     3.539000000
H     0.267000000     6.042000000     3.677000000
H     0.222000000     4.689000000     4.353000000
O    -6.317000000     5.980000000    -0.911000000
H    -5.576000000     5.655000000    -0.401000000
H    -6.861000000     6.444000000    -0.275000000
O    -7.068000000    -0.376000000     6.085000000
H    -6.176000000    -0.031000000     6.135000000
H    -7.542000000     0.261000000     5.551000000
O    -4.129000000     5.332000000     0.518000000
H    -4.264000000     4.511000000     0.991000000
H    -3.219000000     5.294000000     0.225000000
O    -1.911000000     2.526000000     6.175000000
H    -2.450000000     2.771000000     5.423000000
H    -1.064000000     2.939000000     6.007000000
O    -4.614000000     0.588000000     5.858000000
H    -3.876000000     0.087000000     6.204000000
H    -4.218000000     1.383000000     5.500000000
O    -5.436000000     3.719000000     5.358000000
H    -5.876000000     4.308000000     4.745000000
H    -4.642000000     3.445000000     4.899000000
O     0.491000000     4.019000000     6.307000000
H     0.987000000     4.836000000     6.257000000
H     0.612000000     3.719000000     7.208000000
O    -4.443000000     8.167000000     0.460000000
H    -4.887000000     8.619000000     1.178000000
H    -4.582000000     7.237000000     0.640000000
O     0.377000000     3.132000000     1.065000000
H    -0.278000000     2.435000000     1.102000000
H     0.757000000     3.149000000     1.944000000
O    -4.928000000     7.584000000     4.829000000
H    -5.140000000     7.512000000     5.759000000
H    -4.828000000     6.679000000     4.535000000
O    -8.590000000     1.899000000     4.987000000
H    -8.633000000     2.788000000     5.339000000
H    -9.263000000     1.878000000     4.307000000
O    -2.751000000     5.013000000     3.928000000
H    -3.125000000     4.208000000     3.569000000
H    -1.819000000     4.958000000     3.717000000
O    -8.557000000     5.200000000     2.185000000
H    -7.958000000     4.459000000     2.276000000
H    -9.169000000     4.931000000     1.500000000
