215
-1451.91957
C    -5.337000000    -1.274000000    -1.513000000
H    -5.212000000    -2.342000000    -1.354000000
C    -4.342000000    -0.741000000    -2.311000000
C    -4.461000000     0.621000000    -2.536000000
H    -3.595000000     1.053000000    -3.032000000
C    -3.078000000    -1.520000000    -2.713000000
O    -3.281000000    -2.903000000    -2.898000000
H    -2.355000000    -1.307000000    -1.912000000
O    -2.449000000    -1.080000000    -3.993000000
C    -1.136000000    -0.883000000    -4.172000000
C    -0.698000000     0.418000000    -4.244000000
H    -1.415000000     1.235000000    -4.246000000
C     0.673000000     0.663000000    -4.288000000
O     1.090000000     1.954000000    -4.355000000
C     1.553000000    -0.464000000    -4.494000000
C     2.995000000    -0.309000000    -4.689000000
H     3.387000000    -1.152000000    -5.262000000
C     3.760000000    -0.096000000    -3.453000000
C     4.180000000    -1.213000000    -2.767000000
H     4.102000000    -2.224000000    -3.160000000
H     3.175000000     0.575000000    -5.303000000
C     1.049000000    -1.743000000    -4.585000000
H     1.756000000    -2.567000000    -4.626000000
C    -0.321000000    -2.006000000    -4.406000000
C    -0.889000000    -3.473000000    -4.391000000
H    -0.249000000    -4.214000000    -4.875000000
H    -1.796000000    -3.454000000    -5.000000000
C    -1.162000000    -3.960000000    -2.936000000
C    -0.103000000    -4.546000000    -2.223000000
H     0.909000000    -4.520000000    -2.618000000
C    -2.349000000    -3.711000000    -2.269000000
C    -2.375000000    -3.913000000    -0.885000000
H    -3.247000000    -3.658000000    -0.288000000
C    -1.426000000    -4.595000000    -0.234000000
O    -1.467000000    -4.718000000     1.146000000
C    -0.761000000    -3.648000000     1.887000000
C    -1.591000000    -3.125000000     3.021000000
C    -0.982000000    -2.833000000     4.227000000
H     0.076000000    -3.015000000     4.395000000
C    -2.917000000    -2.771000000     2.835000000
H    -3.336000000    -3.047000000     1.870000000
O     0.499000000    -4.198000000     2.373000000
H    -0.679000000    -2.794000000     1.198000000
C    -0.239000000    -4.824000000    -0.857000000
C     0.983000000    -5.427000000    -0.167000000
H     1.521000000    -6.078000000    -0.859000000
H     0.744000000    -6.088000000     0.669000000
C     1.862000000    -4.323000000     0.402000000
C     2.942000000    -3.791000000    -0.336000000
H     2.970000000    -3.949000000    -1.411000000
C     1.636000000    -3.893000000     1.682000000
C     2.467000000    -2.936000000     2.235000000
H     2.371000000    -2.652000000     3.280000000
C     3.521000000    -2.447000000     1.528000000
O     4.161000000    -1.281000000     1.981000000
C     3.740000000    -0.045000000     1.433000000
C     3.431000000     1.036000000     2.519000000
C     2.988000000     0.649000000     3.769000000
H     2.859000000    -0.415000000     3.954000000
C     3.595000000     2.372000000     2.222000000
H     4.029000000     2.823000000     1.333000000
O     4.746000000     0.375000000     0.515000000
H     2.811000000    -0.141000000     0.852000000
C     3.774000000    -2.871000000     0.198000000
C     4.979000000    -2.342000000    -0.567000000
H     5.522000000    -3.080000000    -1.160000000
H     5.771000000    -2.092000000     0.141000000
C     4.658000000    -1.096000000    -1.412000000
C     4.538000000     0.165000000    -0.841000000
C     3.955000000     1.259000000    -1.517000000
H     3.853000000     2.179000000    -0.948000000
C     3.772000000     1.153000000    -2.836000000
O     3.218000000     2.340000000    -3.395000000
C     1.811000000     2.484000000    -3.152000000
H     1.461000000     1.838000000    -2.333000000
C     1.474000000     3.918000000    -2.832000000
C     0.148000000     4.178000000    -2.769000000
H    -0.519000000     3.371000000    -3.061000000
C     2.390000000     4.878000000    -2.393000000
H     3.466000000     4.743000000    -2.315000000
C     1.933000000     6.011000000    -1.796000000
O     2.829000000     6.855000000    -1.255000000
C     0.532000000     6.337000000    -1.788000000
H     0.179000000     7.266000000    -1.348000000
C    -0.349000000     5.359000000    -2.148000000
O    -1.687000000     5.666000000    -2.069000000
C    -2.653000000     4.991000000    -2.824000000
C    -3.676000000     4.277000000    -2.179000000
H    -3.745000000     4.326000000    -1.095000000
C    -2.481000000     4.904000000    -4.187000000
H    -1.732000000     5.515000000    -4.684000000
C    -3.417000000     4.178000000    -4.941000000
H    -3.289000000     4.202000000    -6.020000000
C    -4.392000000     3.428000000    -4.315000000
H    -5.059000000     2.818000000    -4.920000000
C    -4.427000000     3.382000000    -2.936000000
O    -5.518000000     2.757000000    -2.418000000
C    -5.524000000     1.424000000    -2.158000000
C    -6.459000000     0.859000000    -1.291000000
H    -7.361000000     1.416000000    -1.049000000
C    -6.358000000    -0.513000000    -0.988000000
O    -7.293000000    -1.128000000    -0.280000000
C    -7.083000000    -1.866000000     0.907000000
C    -6.166000000    -1.391000000     1.794000000
H    -5.852000000    -0.363000000     1.631000000
C    -7.582000000    -3.115000000     1.054000000
H    -8.254000000    -3.556000000     0.323000000
C    -7.046000000    -4.001000000     1.947000000
H    -7.380000000    -5.029000000     2.058000000
C    -6.179000000    -3.482000000     2.854000000
H    -5.836000000    -4.145000000     3.644000000
C    -5.741000000    -2.150000000     2.835000000
O    -4.869000000    -1.655000000     3.745000000
C    -3.611000000    -2.149000000     3.858000000
C    -3.024000000    -2.012000000     5.136000000
H    -3.625000000    -1.509000000     5.890000000
C    -1.710000000    -2.373000000     5.301000000
O    -1.161000000    -2.189000000     6.551000000
C     0.134000000    -1.736000000     6.642000000
C     0.519000000    -0.444000000     6.246000000
H    -0.197000000     0.276000000     5.858000000
C     1.150000000    -2.629000000     7.087000000
H     0.948000000    -3.677000000     7.293000000
C     2.459000000    -2.211000000     7.124000000
H     3.240000000    -2.890000000     7.458000000
C     2.815000000    -0.903000000     6.796000000
H     3.870000000    -0.640000000     6.802000000
C     1.867000000    -0.032000000     6.302000000
O     2.177000000     1.245000000     5.954000000
C     2.659000000     1.616000000     4.737000000
C     2.854000000     2.973000000     4.488000000
H     2.584000000     3.613000000     5.324000000
C     3.302000000     3.341000000     3.231000000
O     3.573000000     4.691000000     3.060000000
C     4.045000000     5.385000000     1.902000000
C     5.412000000     5.711000000     1.882000000
H     6.103000000     5.372000000     2.649000000
C     5.857000000     6.461000000     0.796000000
H     6.884000000     6.816000000     0.781000000
C     4.973000000     6.820000000    -0.285000000
H     5.323000000     7.271000000    -1.210000000
C     3.622000000     6.473000000    -0.189000000
C     3.161000000     5.739000000     0.892000000
H     2.117000000     5.532000000     1.113000000
C    -1.357000000     0.544000000     2.135000000
H    -1.476000000     0.498000000     3.214000000
C    -0.187000000     0.061000000     1.559000000
H     0.542000000    -0.568000000     2.063000000
C     0.046000000     0.300000000     0.214000000
H     0.896000000    -0.132000000    -0.235000000
C    -0.879000000     0.952000000    -0.525000000
H    -0.762000000     1.007000000    -1.605000000
C    -2.126000000     1.401000000     0.009000000
H    -2.932000000     1.814000000    -0.592000000
C    -2.337000000     1.161000000     1.378000000
C    -3.640000000     1.693000000     2.004000000
O    -4.609000000     2.027000000     1.356000000
O    -3.796000000     1.706000000     3.199000000
O    -0.281000000     7.112000000     4.032000000
H    -0.961000000     7.115000000     4.706000000
H    -0.602000000     6.500000000     3.370000000
O    -1.741000000     5.364000000     2.299000000
H    -1.169000000     4.603000000     2.201000000
H    -1.852000000     5.696000000     1.408000000
O    -5.902000000     3.388000000     7.637000000
H    -6.445000000     4.174000000     7.578000000
H    -5.556000000     3.269000000     6.752000000
O    -2.810000000     0.358000000     7.841000000
H    -3.664000000     0.123000000     7.479000000
H    -2.415000000     0.921000000     7.175000000
O    -8.652000000    -1.997000000     4.235000000
H    -7.796000000    -2.408000000     4.355000000
H    -9.257000000    -2.560000000     4.718000000
O    -6.913000000     3.166000000     1.672000000
H    -6.599000000     3.871000000     2.238000000
H    -6.127000000     2.668000000     1.450000000
O    -9.037000000     1.803000000     5.773000000
H    -8.915000000     2.736000000     5.594000000
H    -8.257000000     1.385000000     5.408000000
O    -7.396000000     4.173000000    -0.984000000
H    -7.221000000     3.945000000    -0.071000000
H    -6.857000000     3.565000000    -1.490000000
O    -5.832000000    -0.004000000     7.197000000
H    -5.888000000     0.426000000     6.344000000
H    -6.531000000    -0.658000000     7.182000000
O    -4.006000000     6.211000000     4.490000000
H    -3.492000000     6.034000000     3.702000000
H    -4.533000000     5.422000000     4.614000000
O    -3.144000000     2.204000000     5.740000000
H    -3.121000000     1.841000000     4.855000000
H    -4.068000000     2.169000000     5.989000000
O    -5.955000000     1.149000000     4.510000000
H    -5.197000000     1.224000000     3.930000000
H    -6.670000000     0.877000000     3.935000000
O    -5.281000000     3.706000000     4.363000000
H    -4.625000000     3.344000000     3.768000000
H    -5.868000000     2.972000000     4.548000000
O    -1.051000000     5.329000000     6.985000000
H    -0.300000000     4.761000000     6.815000000
H    -1.762000000     4.945000000     6.471000000
O    -9.572000000     2.122000000     1.362000000
H    -9.947000000     2.527000000     0.580000000
H    -8.718000000     2.542000000     1.464000000
O    -6.446000000     6.652000000     2.257000000
H    -6.156000000     7.320000000     1.636000000
H    -5.980000000     6.861000000     3.067000000
O     0.238000000     3.596000000     1.753000000
H     1.054000000     3.262000000     2.126000000
H    -0.157000000     2.837000000     1.324000000
O    -8.524000000     4.427000000     5.154000000
H    -9.296000000     4.944000000     5.385000000
H    -8.230000000     4.795000000     4.321000000
O    -8.163000000     0.505000000     3.230000000
H    -8.459000000    -0.400000000     3.327000000
H    -8.669000000     0.845000000     2.492000000
