215
-1445.10072
C    -4.979000000    -1.888000000    -0.130000000
H    -4.511000000    -2.584000000     0.562000000
C    -4.294000000    -1.770000000    -1.324000000
C    -4.793000000    -0.764000000    -2.205000000
H    -4.332000000    -0.648000000    -3.182000000
C    -3.011000000    -2.533000000    -1.705000000
O    -2.871000000    -3.847000000    -1.152000000
H    -2.158000000    -1.996000000    -1.265000000
O    -2.897000000    -2.614000000    -3.124000000
C    -1.670000000    -2.502000000    -3.593000000
C    -1.353000000    -1.280000000    -4.182000000
H    -2.087000000    -0.486000000    -4.291000000
C    -0.020000000    -0.850000000    -4.424000000
O     0.162000000     0.478000000    -4.796000000
C     1.034000000    -1.845000000    -4.316000000
C     2.451000000    -1.586000000    -4.651000000
H     3.000000000    -2.517000000    -4.809000000
C     3.180000000    -0.708000000    -3.625000000
C     3.789000000    -1.404000000    -2.608000000
H     3.836000000    -2.490000000    -2.623000000
H     2.486000000    -0.942000000    -5.532000000
C     0.714000000    -3.145000000    -3.868000000
H     1.497000000    -3.898000000    -3.855000000
C    -0.619000000    -3.464000000    -3.436000000
C    -0.843000000    -4.820000000    -2.801000000
H     0.009000000    -5.439000000    -3.090000000
H    -1.731000000    -5.415000000    -3.025000000
C    -0.619000000    -4.696000000    -1.272000000
C     0.629000000    -4.828000000    -0.616000000
H     1.512000000    -5.194000000    -1.134000000
C    -1.713000000    -4.199000000    -0.547000000
C    -1.681000000    -3.988000000     0.822000000
H    -2.634000000    -3.771000000     1.297000000
C    -0.462000000    -4.246000000     1.462000000
O    -0.331000000    -3.980000000     2.844000000
C     0.195000000    -2.718000000     3.242000000
C    -0.498000000    -2.014000000     4.438000000
C     0.193000000    -1.150000000     5.277000000
H     1.263000000    -0.976000000     5.191000000
C    -1.906000000    -2.088000000     4.475000000
H    -2.373000000    -2.801000000     3.800000000
O     1.593000000    -2.956000000     3.627000000
H     0.042000000    -2.039000000     2.391000000
C     0.641000000    -4.668000000     0.830000000
C     1.967000000    -4.910000000     1.501000000
H     2.525000000    -5.749000000     1.080000000
H     1.829000000    -5.239000000     2.533000000
C     2.849000000    -3.617000000     1.609000000
C     3.728000000    -3.152000000     0.618000000
H     3.826000000    -3.738000000    -0.292000000
C     2.615000000    -2.778000000     2.697000000
C     3.275000000    -1.515000000     2.734000000
H     3.128000000    -0.910000000     3.624000000
C     4.055000000    -1.035000000     1.722000000
O     4.602000000     0.231000000     1.767000000
C     3.930000000     1.120000000     0.864000000
C     3.477000000     2.384000000     1.591000000
C     3.380000000     2.483000000     3.023000000
H     3.723000000     1.626000000     3.597000000
C     3.210000000     3.528000000     0.830000000
H     3.262000000     3.517000000    -0.256000000
O     4.739000000     1.404000000    -0.325000000
H     3.025000000     0.636000000     0.468000000
C     4.349000000    -1.880000000     0.644000000
C     5.183000000    -1.484000000    -0.482000000
H     5.610000000    -2.329000000    -1.026000000
H     6.034000000    -0.855000000    -0.210000000
C     4.449000000    -0.756000000    -1.563000000
C     4.443000000     0.621000000    -1.434000000
C     3.839000000     1.313000000    -2.479000000
H     3.707000000     2.391000000    -2.460000000
C     3.109000000     0.690000000    -3.452000000
O     2.264000000     1.358000000    -4.285000000
C     0.862000000     1.274000000    -3.934000000
H     0.786000000     0.975000000    -2.878000000
C     0.207000000     2.650000000    -3.977000000
C    -1.190000000     2.717000000    -4.178000000
H    -1.827000000     1.837000000    -4.143000000
C     0.878000000     3.869000000    -3.724000000
H     1.961000000     3.903000000    -3.637000000
C     0.229000000     5.101000000    -3.799000000
O     0.908000000     6.295000000    -3.610000000
C    -1.178000000     5.127000000    -4.011000000
H    -1.741000000     6.055000000    -4.080000000
C    -1.895000000     3.938000000    -4.193000000
O    -3.247000000     4.068000000    -4.303000000
C    -4.058000000     2.924000000    -4.547000000
C    -4.971000000     2.578000000    -3.580000000
H    -5.016000000     3.024000000    -2.590000000
C    -3.928000000     2.219000000    -5.745000000
H    -3.171000000     2.445000000    -6.492000000
C    -4.633000000     1.051000000    -5.941000000
H    -4.475000000     0.491000000    -6.859000000
C    -5.699000000     0.745000000    -5.007000000
H    -6.377000000    -0.080000000    -5.206000000
C    -5.773000000     1.474000000    -3.759000000
O    -6.483000000     0.901000000    -2.738000000
C    -5.942000000    -0.008000000    -1.858000000
C    -6.513000000    -0.072000000    -0.581000000
H    -7.357000000     0.536000000    -0.264000000
C    -6.029000000    -1.035000000     0.306000000
O    -6.576000000    -1.171000000     1.587000000
C    -6.003000000    -1.936000000     2.618000000
C    -5.239000000    -1.276000000     3.584000000
H    -5.029000000    -0.212000000     3.657000000
C    -6.162000000    -3.285000000     2.666000000
H    -6.848000000    -3.743000000     1.958000000
C    -5.621000000    -4.062000000     3.720000000
H    -5.899000000    -5.113000000     3.726000000
C    -4.828000000    -3.388000000     4.712000000
H    -4.352000000    -4.012000000     5.464000000
C    -4.673000000    -2.002000000     4.634000000
O    -3.946000000    -1.313000000     5.543000000
C    -2.583000000    -1.323000000     5.455000000
C    -1.904000000    -0.476000000     6.330000000
H    -2.439000000    -0.072000000     7.186000000
C    -0.502000000    -0.420000000     6.234000000
O     0.255000000     0.342000000     7.196000000
C     1.444000000     0.929000000     6.901000000
C     1.500000000     2.035000000     6.089000000
H     0.560000000     2.421000000     5.703000000
C     2.606000000     0.263000000     7.292000000
H     2.609000000    -0.633000000     7.907000000
C     3.815000000     0.713000000     6.834000000
H     4.765000000     0.239000000     7.066000000
C     3.928000000     1.966000000     6.195000000
H     4.932000000     2.354000000     6.047000000
C     2.758000000     2.612000000     5.858000000
O     2.816000000     3.695000000     5.015000000
C     2.950000000     3.624000000     3.691000000
C     2.747000000     4.758000000     2.905000000
H     2.489000000     5.717000000     3.348000000
C     2.788000000     4.693000000     1.503000000
O     2.628000000     5.833000000     0.800000000
C     2.789000000     5.989000000    -0.536000000
C     4.100000000     5.989000000    -1.041000000
H     4.933000000     5.787000000    -0.372000000
C     4.359000000     6.187000000    -2.380000000
H     5.354000000     6.129000000    -2.815000000
C     3.267000000     6.273000000    -3.234000000
H     3.397000000     6.352000000    -4.311000000
C     1.984000000     6.297000000    -2.746000000
C     1.729000000     6.109000000    -1.390000000
H     0.752000000     6.030000000    -0.921000000
C    -1.027000000     1.142000000     2.708000000
H    -1.079000000     1.325000000     3.779000000
C     0.153000000     0.589000000     2.201000000
H     1.004000000     0.385000000     2.846000000
C     0.129000000     0.210000000     0.895000000
H     0.932000000    -0.325000000     0.394000000
C    -0.960000000     0.566000000     0.082000000
H    -0.822000000     0.407000000    -0.984000000
C    -2.052000000     1.158000000     0.604000000
H    -2.900000000     1.310000000    -0.057000000
C    -2.107000000     1.497000000     1.913000000
C    -3.293000000     2.192000000     2.519000000
O    -3.897000000     3.015000000     1.853000000
O    -3.620000000     2.103000000     3.643000000
O    -0.927000000     5.597000000     1.545000000
H    -1.495000000     5.379000000     2.285000000
H    -0.154000000     5.995000000     1.946000000
O    -1.792000000     7.548000000    -0.456000000
H    -2.686000000     7.294000000    -0.683000000
H    -1.427000000     6.777000000    -0.022000000
O    -3.890000000     3.961000000    -0.631000000
H    -3.023000000     3.632000000    -0.866000000
H    -3.952000000     3.819000000     0.314000000
O    -0.493000000     5.473000000     6.701000000
H    -1.144000000     5.622000000     6.015000000
H    -0.631000000     4.564000000     6.969000000
O    -7.075000000     0.667000000     5.969000000
H    -7.175000000     0.085000000     5.215000000
H    -7.836000000     0.478000000     6.519000000
O    -6.475000000     2.614000000     2.938000000
H    -5.657000000     2.478000000     2.459000000
H    -6.200000000     2.959000000     3.788000000
O    -3.966000000     7.445000000     2.714000000
H    -4.526000000     8.081000000     2.269000000
H    -4.453000000     6.622000000     2.665000000
O    -4.782000000     0.350000000     8.399000000
H    -4.607000000     0.678000000     7.517000000
H    -5.342000000    -0.414000000     8.264000000
O    -2.253000000     4.943000000     4.219000000
H    -2.980000000     5.538000000     4.407000000
H    -2.667000000     4.087000000     4.111000000
O    -4.484000000     6.929000000    -0.876000000
H    -5.440000000     6.905000000    -0.829000000
H    -4.207000000     6.067000000    -0.567000000
O    -4.152000000     3.022000000     6.045000000
H    -3.273000000     2.860000000     6.387000000
H    -4.127000000     2.685000000     5.150000000
O    -4.697000000     6.486000000     5.662000000
H    -5.462000000     6.999000000     5.400000000
H    -5.032000000     5.596000000     5.773000000
O    -5.212000000     5.227000000     2.557000000
H    -4.672000000     4.468000000     2.338000000
H    -6.081000000     4.861000000     2.725000000
O    -9.106000000     3.156000000     0.256000000
H    -9.811000000     3.463000000    -0.315000000
H    -8.304000000     3.444000000    -0.179000000
O    -1.220000000     3.097000000     7.681000000
H    -1.924000000     3.371000000     8.270000000
H    -0.817000000     2.349000000     8.121000000
O    -6.776000000     4.332000000    -0.056000000
H    -7.145000000     5.214000000    -0.011000000
H    -5.873000000     4.434000000     0.245000000
O    -1.003000000     3.943000000    -0.833000000
H    -0.487000000     3.141000000    -0.745000000
H    -1.094000000     4.269000000     0.063000000
O    -7.808000000     3.178000000     5.402000000
H    -7.284000000     2.379000000     5.354000000
H    -8.714000000     2.875000000     5.337000000
O    -8.572000000     1.415000000     2.086000000
H    -7.720000000     1.767000000     2.344000000
H    -8.918000000     2.055000000     1.465000000
