215
-1478.66796
C    -4.899000000    -2.328000000    -0.330000000
H    -4.680000000    -3.239000000     0.222000000
C    -4.067000000    -2.006000000    -1.418000000
C    -4.351000000    -0.840000000    -2.152000000
H    -3.653000000    -0.616000000    -2.955000000
C    -2.725000000    -2.843000000    -1.711000000
O    -2.782000000    -4.171000000    -1.174000000
H    -1.916000000    -2.330000000    -1.169000000
O    -2.379000000    -2.962000000    -3.089000000
C    -1.134000000    -2.690000000    -3.504000000
C    -0.921000000    -1.399000000    -3.916000000
H    -1.711000000    -0.662000000    -4.036000000
C     0.375000000    -1.044000000    -4.230000000
O     0.464000000     0.242000000    -4.652000000
C     1.412000000    -1.959000000    -4.276000000
C     2.818000000    -1.440000000    -4.503000000
H     3.460000000    -2.279000000    -4.781000000
C     3.468000000    -0.690000000    -3.366000000
C     4.226000000    -1.362000000    -2.426000000
H     4.259000000    -2.446000000    -2.495000000
H     2.877000000    -0.921000000    -5.461000000
C     1.176000000    -3.203000000    -3.665000000
H     1.954000000    -3.963000000    -3.669000000
C    -0.119000000    -3.648000000    -3.269000000
C    -0.409000000    -4.993000000    -2.609000000
H     0.420000000    -5.595000000    -2.987000000
H    -1.355000000    -5.307000000    -3.054000000
C    -0.517000000    -4.909000000    -1.097000000
C     0.680000000    -5.012000000    -0.366000000
H     1.628000000    -5.153000000    -0.879000000
C    -1.687000000    -4.547000000    -0.444000000
C    -1.691000000    -4.207000000     0.874000000
H    -2.639000000    -3.984000000     1.357000000
C    -0.488000000    -4.305000000     1.590000000
O    -0.568000000    -3.943000000     2.958000000
C     0.081000000    -2.635000000     3.263000000
C    -0.781000000    -2.020000000     4.366000000
C    -0.166000000    -1.110000000     5.225000000
H     0.909000000    -0.947000000     5.221000000
C    -2.162000000    -2.249000000     4.363000000
H    -2.550000000    -3.003000000     3.683000000
O     1.402000000    -2.907000000     3.756000000
H     0.108000000    -1.976000000     2.382000000
C     0.712000000    -4.809000000     0.979000000
C     2.110000000    -4.845000000     1.607000000
H     2.796000000    -5.462000000     1.023000000
H     1.860000000    -5.244000000     2.592000000
C     2.829000000    -3.469000000     1.730000000
C     3.866000000    -3.127000000     0.826000000
H     4.166000000    -3.756000000    -0.009000000
C     2.453000000    -2.603000000     2.816000000
C     3.028000000    -1.355000000     2.923000000
H     2.737000000    -0.629000000     3.678000000
C     4.019000000    -1.020000000     2.032000000
O     4.433000000     0.272000000     2.161000000
C     4.045000000     1.240000000     1.189000000
C     3.633000000     2.595000000     1.793000000
C     2.950000000     2.663000000     3.058000000
H     2.789000000     1.811000000     3.714000000
C     3.657000000     3.735000000     1.034000000
H     4.148000000     3.704000000     0.064000000
O     4.806000000     1.403000000     0.015000000
H     3.067000000     0.807000000     0.931000000
C     4.384000000    -1.861000000     0.915000000
C     5.393000000    -1.373000000    -0.111000000
H     5.939000000    -2.209000000    -0.553000000
H     6.130000000    -0.667000000     0.279000000
C     4.679000000    -0.649000000    -1.251000000
C     4.366000000     0.702000000    -1.089000000
C     3.667000000     1.371000000    -2.045000000
H     3.336000000     2.374000000    -1.785000000
C     3.255000000     0.707000000    -3.174000000
O     2.519000000     1.416000000    -4.028000000
C     1.056000000     1.279000000    -3.719000000
H     0.942000000     0.882000000    -2.700000000
C     0.326000000     2.602000000    -3.992000000
C    -0.979000000     2.579000000    -4.551000000
H    -1.483000000     1.658000000    -4.832000000
C     0.889000000     3.826000000    -3.580000000
H     1.913000000     3.838000000    -3.217000000
C     0.201000000     5.029000000    -3.728000000
O     0.755000000     6.286000000    -3.329000000
C    -1.034000000     5.011000000    -4.426000000
H    -1.552000000     5.965000000    -4.492000000
C    -1.603000000     3.799000000    -4.805000000
O    -2.856000000     3.946000000    -5.244000000
C    -3.761000000     2.930000000    -5.125000000
C    -4.191000000     2.535000000    -3.829000000
H    -3.715000000     2.928000000    -2.935000000
C    -4.344000000     2.352000000    -6.294000000
H    -3.996000000     2.576000000    -7.299000000
C    -5.324000000     1.390000000    -6.145000000
H    -5.672000000     0.869000000    -7.034000000
C    -5.652000000     0.910000000    -4.854000000
H    -6.400000000     0.123000000    -4.785000000
C    -5.076000000     1.513000000    -3.756000000
O    -5.562000000     1.178000000    -2.489000000
C    -5.436000000    -0.037000000    -1.872000000
C    -6.268000000    -0.353000000    -0.773000000
H    -7.168000000     0.176000000    -0.470000000
C    -5.934000000    -1.473000000     0.006000000
O    -6.729000000    -1.739000000     1.113000000
C    -6.122000000    -2.423000000     2.151000000
C    -5.347000000    -1.734000000     3.092000000
H    -5.230000000    -0.663000000     2.948000000
C    -6.397000000    -3.760000000     2.292000000
H    -7.033000000    -4.296000000     1.592000000
C    -5.879000000    -4.470000000     3.434000000
H    -6.002000000    -5.546000000     3.524000000
C    -5.368000000    -3.698000000     4.465000000
H    -5.034000000    -4.203000000     5.367000000
C    -5.048000000    -2.278000000     4.328000000
O    -4.360000000    -1.636000000     5.285000000
C    -2.968000000    -1.474000000     5.220000000
C    -2.380000000    -0.538000000     6.071000000
H    -3.000000000     0.013000000     6.774000000
C    -1.006000000    -0.369000000     6.082000000
O    -0.581000000     0.595000000     6.997000000
C     0.679000000     1.208000000     6.860000000
C     0.711000000     2.282000000     6.015000000
H    -0.221000000     2.556000000     5.527000000
C     1.829000000     0.746000000     7.504000000
H     1.806000000    -0.099000000     8.188000000
C     3.031000000     1.363000000     7.227000000
H     3.926000000     0.946000000     7.683000000
C     3.050000000     2.467000000     6.383000000
H     4.045000000     2.806000000     6.109000000
C     1.932000000     2.947000000     5.744000000
O     1.926000000     3.959000000     4.802000000
C     2.532000000     3.882000000     3.535000000
C     2.671000000     5.042000000     2.846000000
H     2.347000000     5.992000000     3.264000000
C     3.194000000     4.954000000     1.538000000
O     3.366000000     6.117000000     0.794000000
C     3.277000000     6.156000000    -0.598000000
C     4.433000000     6.295000000    -1.366000000
H     5.397000000     6.200000000    -0.873000000
C     4.373000000     6.248000000    -2.709000000
H     5.288000000     6.123000000    -3.283000000
C     3.237000000     6.384000000    -3.441000000
H     3.245000000     6.406000000    -4.528000000
C     2.015000000     6.317000000    -2.699000000
C     2.029000000     6.230000000    -1.258000000
H     1.147000000     6.245000000    -0.623000000
C    -1.012000000     1.132000000     2.579000000
H    -0.686000000     1.323000000     3.598000000
C    -0.132000000     0.437000000     1.698000000
H     0.917000000     0.241000000     1.907000000
C    -0.547000000     0.021000000     0.434000000
H     0.063000000    -0.548000000    -0.192000000
C    -1.821000000     0.267000000    -0.027000000
H    -2.144000000    -0.079000000    -1.005000000
C    -2.681000000     0.931000000     0.829000000
H    -3.717000000     1.173000000     0.607000000
C    -2.268000000     1.404000000     2.115000000
C    -3.298000000     2.233000000     2.854000000
O    -4.509000000     2.166000000     2.651000000
O    -2.866000000     3.141000000     3.601000000
O    -0.700000000     7.043000000     1.615000000
H    -0.380000000     6.149000000     1.738000000
H    -1.653000000     6.956000000     1.606000000
O    -2.237000000     4.745000000    -1.189000000
H    -2.874000000     4.550000000    -0.502000000
H    -1.446000000     4.277000000    -0.922000000
O    -4.307000000     3.853000000     0.328000000
H    -4.563000000     3.110000000     0.873000000
H    -5.111000000     4.107000000    -0.125000000
O    -2.326000000     6.000000000     4.845000000
H    -2.840000000     6.593000000     5.394000000
H    -2.305000000     5.178000000     5.335000000
O    -4.951000000    -1.008000000     8.159000000
H    -5.752000000    -1.522000000     8.265000000
H    -4.616000000    -1.260000000     7.299000000
O    -7.199000000     2.294000000     1.955000000
H    -6.290000000     2.004000000     2.026000000
H    -7.693000000     1.662000000     2.477000000
O    -4.534000000     7.758000000     0.945000000
H    -3.922000000     7.932000000     0.230000000
H    -4.081000000     7.121000000     1.498000000
O    -0.915000000     3.056000000     8.843000000
H    -1.199000000     2.155000000     8.688000000
H    -1.240000000     3.543000000     8.086000000
O    -0.552000000     4.355000000     2.788000000
H     0.242000000     4.253000000     3.314000000
H    -1.245000000     3.969000000     3.324000000
O    -9.432000000     3.895000000     5.158000000
H    -8.966000000     4.708000000     5.353000000
H    -8.740000000     3.254000000     5.000000000
O    -6.070000000     6.617000000     5.233000000
H    -5.495000000     6.950000000     5.923000000
H    -5.925000000     5.671000000     5.236000000
O    -2.642000000     3.626000000     6.333000000
H    -3.284000000     3.382000000     6.999000000
H    -2.947000000     3.192000000     5.536000000
O    -3.268000000     5.808000000     2.016000000
H    -3.519000000     4.993000000     1.582000000
H    -2.767000000     5.527000000     2.782000000
O    -5.230000000     4.106000000     4.686000000
H    -4.510000000     4.325000000     5.277000000
H    -4.800000000     3.792000000     3.890000000
O    -4.773000000     3.319000000     7.827000000
H    -4.913000000     2.566000000     8.401000000
H    -5.390000000     3.979000000     8.144000000
O    -7.700000000     4.794000000     2.905000000
H    -6.895000000     5.138000000     3.291000000
H    -7.503000000     3.877000000     2.716000000
O    -6.634000000     5.008000000    -1.139000000
H    -6.732000000     5.805000000    -0.619000000
H    -6.719000000     5.302000000    -2.046000000
O    -0.319000000     3.414000000     0.374000000
H    -0.423000000     2.463000000     0.413000000
H    -0.500000000     3.712000000     1.265000000
O    -7.122000000     2.000000000     4.890000000
H    -6.499000000     2.647000000     4.557000000
H    -6.682000000     1.611000000     5.646000000
