215
-1456.87757
C    -4.328000000    -2.387000000    -0.754000000
H    -3.941000000    -3.046000000     0.019000000
C    -3.543000000    -2.176000000    -1.913000000
C    -3.940000000    -1.172000000    -2.802000000
H    -3.382000000    -0.941000000    -3.706000000
C    -2.180000000    -2.785000000    -2.067000000
O    -2.169000000    -4.083000000    -1.399000000
H    -1.560000000    -2.087000000    -1.486000000
O    -1.752000000    -2.878000000    -3.412000000
C    -0.416000000    -2.553000000    -3.699000000
C    -0.205000000    -1.288000000    -4.158000000
H    -1.002000000    -0.630000000    -4.494000000
C     1.105000000    -0.900000000    -4.417000000
O     1.236000000     0.399000000    -4.952000000
C     2.190000000    -1.741000000    -4.150000000
C     3.625000000    -1.251000000    -4.321000000
H     4.349000000    -2.012000000    -4.621000000
C     4.050000000    -0.486000000    -3.125000000
C     4.411000000    -1.082000000    -1.931000000
H     4.654000000    -2.140000000    -1.999000000
H     3.642000000    -0.543000000    -5.152000000
C     1.915000000    -2.921000000    -3.569000000
H     2.689000000    -3.631000000    -3.291000000
C     0.632000000    -3.364000000    -3.342000000
C     0.425000000    -4.714000000    -2.598000000
H     1.286000000    -5.371000000    -2.739000000
H    -0.461000000    -5.195000000    -3.017000000
C     0.164000000    -4.496000000    -1.105000000
C     1.184000000    -4.841000000    -0.177000000
H     2.188000000    -5.010000000    -0.557000000
C    -1.118000000    -4.276000000    -0.549000000
C    -1.300000000    -4.294000000     0.787000000
H    -2.317000000    -4.074000000     1.102000000
C    -0.238000000    -4.541000000     1.697000000
O    -0.473000000    -4.350000000     3.044000000
C    -0.215000000    -2.918000000     3.395000000
C    -1.298000000    -2.319000000     4.204000000
C    -1.108000000    -1.166000000     4.876000000
H    -0.186000000    -0.612000000     4.720000000
C    -2.562000000    -2.890000000     4.185000000
H    -2.860000000    -3.693000000     3.515000000
O     1.072000000    -2.780000000     3.898000000
H    -0.195000000    -2.336000000     2.461000000
C     1.007000000    -4.696000000     1.205000000
C     2.296000000    -4.690000000     2.037000000
H     3.138000000    -5.239000000     1.610000000
H     2.158000000    -5.122000000     3.030000000
C     2.713000000    -3.272000000     2.119000000
C     3.747000000    -2.871000000     1.298000000
H     4.182000000    -3.590000000     0.609000000
C     2.062000000    -2.409000000     2.975000000
C     2.644000000    -1.186000000     3.186000000
H     2.217000000    -0.528000000     3.938000000
C     3.640000000    -0.715000000     2.351000000
O     4.053000000     0.652000000     2.496000000
C     3.501000000     1.523000000     1.517000000
C     3.009000000     2.785000000     2.221000000
C     2.371000000     2.760000000     3.475000000
H     2.437000000     1.817000000     4.011000000
C     2.996000000     3.955000000     1.515000000
H     3.380000000     3.950000000     0.498000000
O     4.453000000     1.767000000     0.466000000
H     2.574000000     1.074000000     1.131000000
C     4.201000000    -1.564000000     1.391000000
C     5.269000000    -0.985000000     0.476000000
H     5.959000000    -1.785000000     0.198000000
H     5.913000000    -0.243000000     0.953000000
C     4.577000000    -0.383000000    -0.732000000
C     4.345000000     1.017000000    -0.750000000
C     3.907000000     1.607000000    -1.923000000
H     3.610000000     2.648000000    -2.026000000
C     3.816000000     0.887000000    -3.060000000
O     3.189000000     1.492000000    -4.140000000
C     1.722000000     1.401000000    -4.094000000
H     1.460000000     1.066000000    -3.080000000
C     0.977000000     2.670000000    -4.207000000
C    -0.409000000     2.691000000    -4.436000000
H    -0.934000000     1.762000000    -4.645000000
C     1.640000000     3.886000000    -3.944000000
H     2.716000000     3.896000000    -3.788000000
C     0.889000000     5.063000000    -3.878000000
O     1.535000000     6.316000000    -3.528000000
C    -0.490000000     5.138000000    -4.146000000
H    -1.101000000     6.037000000    -4.155000000
C    -1.115000000     3.942000000    -4.313000000
O    -2.463000000     3.968000000    -4.556000000
C    -3.327000000     2.930000000    -5.065000000
C    -4.015000000     2.191000000    -4.106000000
H    -3.855000000     2.489000000    -3.073000000
C    -3.465000000     2.722000000    -6.392000000
H    -2.926000000     3.328000000    -7.115000000
C    -4.166000000     1.646000000    -6.794000000
H    -4.321000000     1.375000000    -7.836000000
C    -4.891000000     0.896000000    -5.826000000
H    -5.505000000     0.113000000    -6.264000000
C    -4.795000000     1.084000000    -4.475000000
O    -5.564000000     0.481000000    -3.536000000
C    -5.089000000    -0.430000000    -2.640000000
C    -5.964000000    -0.802000000    -1.637000000
H    -6.900000000    -0.258000000    -1.547000000
C    -5.485000000    -1.659000000    -0.651000000
O    -6.359000000    -1.905000000     0.446000000
C    -6.199000000    -2.780000000     1.526000000
C    -5.630000000    -2.409000000     2.734000000
H    -5.430000000    -1.357000000     2.916000000
C    -6.586000000    -4.088000000     1.319000000
H    -7.003000000    -4.404000000     0.366000000
C    -6.432000000    -5.040000000     2.374000000
H    -6.743000000    -6.077000000     2.268000000
C    -5.874000000    -4.607000000     3.579000000
H    -5.687000000    -5.300000000     4.395000000
C    -5.460000000    -3.252000000     3.791000000
O    -4.853000000    -2.856000000     4.933000000
C    -3.610000000    -2.323000000     4.945000000
C    -3.369000000    -1.199000000     5.737000000
H    -4.117000000    -0.781000000     6.405000000
C    -2.146000000    -0.651000000     5.724000000
O    -1.958000000     0.472000000     6.553000000
C    -0.756000000     1.073000000     6.651000000
C    -0.343000000     2.137000000     5.742000000
H    -0.942000000     2.223000000     4.839000000
C     0.154000000     0.746000000     7.702000000
H     0.021000000    -0.079000000     8.397000000
C     1.295000000     1.475000000     7.965000000
H     1.880000000     1.120000000     8.809000000
C     1.682000000     2.430000000     7.027000000
H     2.596000000     3.006000000     7.145000000
C     0.872000000     2.776000000     5.944000000
O     1.155000000     3.902000000     5.230000000
C     1.824000000     3.888000000     3.988000000
C     1.733000000     5.095000000     3.257000000
H     1.144000000     5.921000000     3.649000000
C     2.307000000     5.083000000     1.943000000
O     2.220000000     6.290000000     1.183000000
C     2.756000000     6.394000000    -0.120000000
C     4.131000000     6.525000000    -0.325000000
H     4.765000000     6.550000000     0.558000000
C     4.646000000     6.479000000    -1.613000000
H     5.722000000     6.617000000    -1.685000000
C     3.734000000     6.446000000    -2.667000000
H     4.127000000     6.503000000    -3.679000000
C     2.378000000     6.416000000    -2.476000000
C     1.888000000     6.338000000    -1.182000000
H     0.830000000     6.141000000    -1.033000000
C    -1.580000000     1.010000000     1.868000000
H    -1.829000000     1.147000000     2.917000000
C    -0.323000000     0.590000000     1.403000000
H     0.468000000     0.428000000     2.131000000
C    -0.170000000     0.484000000     0.029000000
H     0.788000000     0.084000000    -0.351000000
C    -1.175000000     0.656000000    -0.904000000
H    -0.906000000     0.635000000    -1.957000000
C    -2.426000000     1.101000000    -0.418000000
H    -3.254000000     1.319000000    -1.087000000
C    -2.631000000     1.292000000     0.968000000
C    -4.013000000     1.721000000     1.487000000
O    -4.874000000     2.022000000     0.666000000
O    -4.123000000     1.976000000     2.701000000
O    -1.366000000     7.470000000     2.948000000
H    -0.569000000     7.278000000     2.454000000
H    -2.012000000     6.850000000     2.611000000
O    -1.746000000     5.882000000    -1.197000000
H    -2.666000000     5.617000000    -1.184000000
H    -1.266000000     5.070000000    -1.358000000
O    -8.504000000     4.771000000     1.558000000
H    -7.639000000     4.572000000     1.916000000
H    -9.102000000     4.660000000     2.297000000
O    -4.392000000     4.440000000    -0.444000000
H    -4.390000000     3.543000000    -0.111000000
H    -5.318000000     4.641000000    -0.583000000
O    -9.191000000    -1.737000000     0.846000000
H    -8.311000000    -1.555000000     0.514000000
H    -9.694000000    -1.979000000     0.069000000
O    -3.595000000     5.576000000     5.949000000
H    -4.446000000     5.745000000     6.353000000
H    -3.633000000     4.656000000     5.685000000
O    -9.042000000     0.484000000     2.156000000
H    -9.110000000    -0.416000000     1.836000000
H    -8.801000000     0.392000000     3.078000000
O    -6.773000000    -0.297000000     6.429000000
H    -7.586000000    -0.754000000     6.646000000
H    -6.992000000     0.228000000     5.659000000
O    -6.517000000     1.830000000     4.014000000
H    -6.838000000     2.499000000     3.409000000
H    -5.660000000     1.584000000     3.666000000
O    -0.845000000     3.819000000     1.737000000
H    -1.471000000     3.111000000     1.891000000
H    -0.841000000     4.318000000     2.554000000
O    -8.657000000     3.272000000    -1.661000000
H    -8.239000000     2.830000000    -0.922000000
H    -8.134000000     4.063000000    -1.794000000
O    -8.543000000     1.155000000    -3.205000000
H    -7.805000000     0.653000000    -2.860000000
H    -8.712000000     1.822000000    -2.539000000
O    -3.651000000     3.058000000     5.134000000
H    -3.806000000     2.303000000     5.702000000
H    -3.787000000     2.724000000     4.248000000
O    -2.986000000     6.025000000     1.528000000
H    -3.286000000     6.330000000     0.672000000
H    -3.017000000     5.070000000     1.467000000
O    -5.723000000     4.452000000     2.209000000
H    -5.710000000     4.563000000     3.160000000
H    -5.205000000     3.662000000     2.054000000
O    -7.539000000     1.637000000     0.367000000
H    -6.637000000     1.625000000     0.687000000
H    -8.055000000     1.290000000     1.094000000
O    -6.758000000     5.376000000    -2.290000000
H    -7.326000000     5.951000000    -1.777000000
H    -5.907000000     5.814000000    -2.287000000
O    -0.302000000     3.675000000    -0.950000000
H    -0.765000000     2.842000000    -0.859000000
H    -0.046000000     3.905000000    -0.057000000
O    -5.437000000     7.971000000     2.487000000
H    -5.323000000     7.030000000     2.621000000
H    -5.028000000     8.374000000     3.254000000
