215
-1456.61351
C    -4.709000000    -2.182000000    -1.781000000
H    -4.548000000    -2.754000000    -0.870000000
C    -3.728000000    -1.874000000    -2.706000000
C    -3.951000000    -0.892000000    -3.630000000
H    -3.088000000    -0.632000000    -4.237000000
C    -2.415000000    -2.640000000    -2.647000000
O    -2.612000000    -3.906000000    -1.898000000
H    -1.794000000    -2.005000000    -1.998000000
O    -1.740000000    -2.755000000    -3.933000000
C    -0.404000000    -2.507000000    -3.946000000
C     0.050000000    -1.220000000    -4.376000000
H    -0.676000000    -0.521000000    -4.783000000
C     1.416000000    -0.886000000    -4.285000000
O     1.771000000     0.387000000    -4.640000000
C     2.365000000    -1.839000000    -3.877000000
C     3.850000000    -1.522000000    -3.863000000
H     4.452000000    -2.430000000    -3.935000000
C     4.318000000    -0.840000000    -2.674000000
C     4.805000000    -1.563000000    -1.594000000
H     4.890000000    -2.619000000    -1.840000000
H     4.125000000    -1.008000000    -4.786000000
C     1.917000000    -3.104000000    -3.355000000
H     2.563000000    -3.825000000    -2.860000000
C     0.536000000    -3.437000000    -3.408000000
C     0.065000000    -4.801000000    -2.880000000
H     0.863000000    -5.506000000    -3.121000000
H    -0.740000000    -5.121000000    -3.545000000
C    -0.347000000    -4.740000000    -1.400000000
C     0.563000000    -5.111000000    -0.367000000
H     1.586000000    -5.298000000    -0.682000000
C    -1.600000000    -4.263000000    -1.013000000
C    -1.910000000    -4.006000000     0.327000000
H    -2.881000000    -3.561000000     0.531000000
C    -0.994000000    -4.239000000     1.325000000
O    -1.154000000    -3.912000000     2.651000000
C    -0.515000000    -2.736000000     3.120000000
C    -1.558000000    -1.961000000     3.949000000
C    -1.229000000    -1.306000000     5.064000000
H    -0.201000000    -1.288000000     5.415000000
C    -2.805000000    -1.792000000     3.399000000
H    -3.055000000    -2.215000000     2.429000000
O     0.667000000    -3.023000000     3.958000000
H    -0.271000000    -2.115000000     2.246000000
C     0.258000000    -4.786000000     0.961000000
C     1.386000000    -5.142000000     1.934000000
H     1.953000000    -6.040000000     1.680000000
H     0.974000000    -5.501000000     2.880000000
C     2.256000000    -3.943000000     2.327000000
C     3.349000000    -3.577000000     1.563000000
H     3.587000000    -4.300000000     0.787000000
C     1.894000000    -3.006000000     3.345000000
C     2.644000000    -1.876000000     3.565000000
H     2.317000000    -1.123000000     4.278000000
C     3.746000000    -1.556000000     2.773000000
O     4.324000000    -0.300000000     2.869000000
C     3.826000000     0.763000000     2.006000000
C     3.253000000     2.050000000     2.569000000
C     2.821000000     2.151000000     3.892000000
H     3.017000000     1.330000000     4.577000000
C     3.018000000     3.132000000     1.727000000
H     3.415000000     3.103000000     0.716000000
O     4.795000000     0.957000000     1.045000000
H     2.988000000     0.216000000     1.548000000
C     4.119000000    -2.386000000     1.740000000
C     5.330000000    -1.974000000     0.886000000
H     5.640000000    -2.926000000     0.451000000
H     6.255000000    -1.654000000     1.371000000
C     4.944000000    -1.032000000    -0.300000000
C     4.755000000     0.319000000    -0.162000000
C     4.302000000     1.095000000    -1.216000000
H     4.063000000     2.143000000    -1.053000000
C     4.075000000     0.528000000    -2.464000000
O     3.559000000     1.320000000    -3.443000000
C     2.099000000     1.339000000    -3.575000000
H     1.663000000     0.846000000    -2.694000000
C     1.477000000     2.722000000    -3.835000000
C     0.177000000     2.822000000    -4.384000000
H    -0.320000000     1.907000000    -4.696000000
C     2.028000000     3.923000000    -3.365000000
H     3.026000000     3.946000000    -2.934000000
C     1.361000000     5.119000000    -3.549000000
O     1.938000000     6.300000000    -3.221000000
C     0.042000000     5.169000000    -4.056000000
H    -0.504000000     6.108000000    -4.028000000
C    -0.527000000     4.004000000    -4.497000000
O    -1.842000000     4.065000000    -4.999000000
C    -2.535000000     3.031000000    -5.543000000
C    -3.587000000     2.504000000    -4.720000000
H    -3.636000000     2.828000000    -3.684000000
C    -2.365000000     2.603000000    -6.827000000
H    -1.585000000     3.035000000    -7.449000000
C    -3.254000000     1.575000000    -7.302000000
H    -2.947000000     1.085000000    -8.223000000
C    -4.223000000     0.987000000    -6.533000000
H    -4.661000000     0.072000000    -6.922000000
C    -4.389000000     1.452000000    -5.201000000
O    -5.397000000     0.775000000    -4.528000000
C    -5.157000000    -0.195000000    -3.606000000
C    -6.133000000    -0.475000000    -2.615000000
H    -7.096000000     0.028000000    -2.591000000
C    -5.942000000    -1.490000000    -1.759000000
O    -6.911000000    -1.693000000    -0.849000000
C    -6.703000000    -2.075000000     0.484000000
C    -5.795000000    -1.406000000     1.359000000
H    -5.237000000    -0.562000000     0.960000000
C    -7.564000000    -3.062000000     0.970000000
H    -8.213000000    -3.608000000     0.290000000
C    -7.434000000    -3.553000000     2.268000000
H    -8.160000000    -4.287000000     2.607000000
C    -6.567000000    -2.914000000     3.149000000
H    -6.417000000    -3.239000000     4.176000000
C    -5.800000000    -1.818000000     2.690000000
O    -5.078000000    -1.011000000     3.599000000
C    -3.864000000    -1.187000000     4.089000000
C    -3.515000000    -0.479000000     5.230000000
H    -4.212000000     0.128000000     5.802000000
C    -2.191000000    -0.505000000     5.703000000
O    -1.814000000     0.265000000     6.814000000
C    -0.623000000     0.919000000     7.122000000
C     0.124000000     1.751000000     6.225000000
H    -0.121000000     1.763000000     5.165000000
C    -0.154000000     0.874000000     8.458000000
H    -0.742000000     0.397000000     9.238000000
C     1.065000000     1.423000000     8.840000000
H     1.430000000     1.263000000     9.852000000
C     1.785000000     2.200000000     7.936000000
H     2.679000000     2.726000000     8.260000000
C     1.289000000     2.434000000     6.660000000
O     2.032000000     3.323000000     5.835000000
C     2.258000000     3.283000000     4.416000000
C     2.092000000     4.394000000     3.574000000
H     1.743000000     5.329000000     4.004000000
C     2.533000000     4.318000000     2.222000000
O     2.331000000     5.516000000     1.568000000
C     2.820000000     5.965000000     0.358000000
C     3.863000000     6.816000000     0.361000000
H     4.345000000     6.931000000     1.328000000
C     4.250000000     7.502000000    -0.759000000
H     5.034000000     8.243000000    -0.623000000
C     3.506000000     7.423000000    -1.917000000
H     3.674000000     8.011000000    -2.816000000
C     2.465000000     6.565000000    -1.963000000
C     2.099000000     5.837000000    -0.837000000
H     1.192000000     5.240000000    -0.889000000
C    -1.317000000     1.286000000     2.263000000
H    -1.550000000     1.645000000     3.262000000
C    -0.094000000     0.595000000     2.070000000
H     0.609000000     0.504000000     2.895000000
C     0.236000000     0.072000000     0.813000000
H     1.075000000    -0.612000000     0.735000000
C    -0.724000000     0.207000000    -0.224000000
H    -0.432000000    -0.248000000    -1.167000000
C    -1.962000000     0.883000000    -0.015000000
H    -2.687000000     0.881000000    -0.825000000
C    -2.236000000     1.434000000     1.237000000
C    -3.565000000     2.083000000     1.435000000
O    -4.416000000     2.122000000     0.536000000
O    -3.808000000     2.642000000     2.508000000
O    -1.392000000     3.474000000    -1.724000000
H    -2.329000000     3.646000000    -1.627000000
H    -1.199000000     3.702000000    -2.633000000
O    -3.804000000     4.468000000    -1.267000000
H    -4.263000000     3.705000000    -0.916000000
H    -4.499000000     5.090000000    -1.479000000
O    -2.415000000     5.912000000     5.637000000
H    -2.014000000     5.798000000     4.776000000
H    -1.781000000     6.433000000     6.130000000
O    -9.314000000    -0.327000000     0.071000000
H    -8.963000000     0.558000000    -0.026000000
H    -8.547000000    -0.897000000     0.023000000
O    -8.498000000     2.920000000     2.539000000
H    -7.549000000     3.046000000     2.518000000
H    -8.632000000     2.212000000     3.170000000
O    -6.364000000     1.374000000     3.507000000
H    -6.222000000     0.456000000     3.736000000
H    -5.639000000     1.590000000     2.921000000
O    -6.026000000     4.245000000     1.128000000
H    -5.646000000     5.116000000     1.011000000
H    -5.282000000     3.685000000     1.347000000
O    -4.214000000     2.172000000     7.849000000
H    -4.171000000     2.586000000     6.986000000
H    -3.300000000     2.084000000     8.119000000
O    -1.127000000     5.336000000     0.519000000
H    -1.279000000     4.999000000     1.402000000
H    -0.707000000     4.612000000     0.055000000
O    -6.519000000     2.608000000    -2.847000000
H    -6.172000000     2.223000000    -3.652000000
H    -7.141000000     3.271000000    -3.147000000
O    -6.929000000     3.203000000     5.383000000
H    -6.117000000     3.519000000     5.780000000
H    -6.648000000     2.519000000     4.776000000
O    -3.863000000     3.566000000     5.324000000
H    -3.225000000     4.280000000     5.334000000
H    -3.829000000     3.227000000     4.429000000
O    -3.935000000     6.461000000     0.823000000
H    -3.242000000     6.015000000     0.335000000
H    -3.682000000     7.384000000     0.807000000
O    -2.495000000     5.126000000     2.984000000
H    -2.854000000     5.929000000     2.604000000
H    -3.071000000     4.432000000     2.665000000
O    -7.089000000     1.398000000    -0.416000000
H    -6.288000000     1.687000000     0.021000000
H    -7.150000000     1.952000000    -1.194000000
O    -5.765000000     6.180000000    -1.945000000
H    -5.286000000     6.684000000    -2.602000000
H    -6.241000000     6.838000000    -1.438000000
O     0.768000000     2.748000000    -0.241000000
H    -0.030000000     2.788000000    -0.768000000
H     0.538000000     2.187000000     0.500000000
O    -6.556000000     7.094000000     2.631000000
H    -6.002000000     7.851000000     2.823000000
H    -6.092000000     6.353000000     3.021000000
O    -8.713000000     4.563000000    -0.208000000
H    -8.028000000     4.245000000     0.381000000
H    -8.453000000     5.460000000    -0.416000000
