215
-1478.79782
C    -4.593000000    -1.669000000    -1.155000000
H    -4.300000000    -2.287000000    -0.311000000
C    -3.735000000    -1.587000000    -2.278000000
C    -4.083000000    -0.746000000    -3.374000000
H    -3.408000000    -0.827000000    -4.223000000
C    -2.402000000    -2.381000000    -2.273000000
O    -2.540000000    -3.677000000    -1.645000000
H    -1.698000000    -1.776000000    -1.684000000
O    -1.828000000    -2.733000000    -3.611000000
C    -0.503000000    -2.465000000    -3.898000000
C    -0.088000000    -1.298000000    -4.511000000
H    -0.744000000    -0.524000000    -4.900000000
C     1.313000000    -1.024000000    -4.541000000
O     1.604000000     0.305000000    -4.924000000
C     2.234000000    -1.886000000    -4.007000000
C     3.727000000    -1.634000000    -4.025000000
H     4.319000000    -2.552000000    -4.042000000
C     4.140000000    -0.868000000    -2.810000000
C     4.452000000    -1.553000000    -1.692000000
H     4.807000000    -2.570000000    -1.841000000
H     4.022000000    -1.018000000    -4.877000000
C     1.805000000    -3.169000000    -3.518000000
H     2.531000000    -3.927000000    -3.239000000
C     0.456000000    -3.446000000    -3.447000000
C    -0.078000000    -4.728000000    -2.821000000
H     0.603000000    -5.578000000    -2.891000000
H    -0.962000000    -5.116000000    -3.330000000
C    -0.398000000    -4.506000000    -1.312000000
C     0.588000000    -4.879000000    -0.374000000
H     1.505000000    -5.325000000    -0.751000000
C    -1.641000000    -4.132000000    -0.819000000
C    -1.889000000    -4.131000000     0.514000000
H    -2.855000000    -3.730000000     0.810000000
C    -0.921000000    -4.434000000     1.373000000
O    -1.157000000    -4.296000000     2.786000000
C    -0.748000000    -3.032000000     3.271000000
C    -1.828000000    -2.278000000     4.106000000
C    -1.429000000    -1.371000000     5.125000000
H    -0.380000000    -1.199000000     5.349000000
C    -3.180000000    -2.335000000     3.796000000
H    -3.521000000    -2.847000000     2.900000000
O     0.508000000    -3.108000000     3.978000000
H    -0.511000000    -2.418000000     2.389000000
C     0.365000000    -4.803000000     0.995000000
C     1.461000000    -5.097000000     1.974000000
H     2.248000000    -5.698000000     1.514000000
H     1.077000000    -5.536000000     2.897000000
C     2.142000000    -3.757000000     2.285000000
C     3.281000000    -3.423000000     1.514000000
H     3.630000000    -4.070000000     0.713000000
C     1.689000000    -2.849000000     3.299000000
C     2.443000000    -1.660000000     3.469000000
H     2.053000000    -0.958000000     4.202000000
C     3.459000000    -1.345000000     2.656000000
O     3.900000000    -0.092000000     2.837000000
C     3.550000000     0.891000000     1.858000000
C     3.248000000     2.252000000     2.453000000
C     2.506000000     2.333000000     3.596000000
H     2.243000000     1.414000000     4.114000000
C     3.672000000     3.434000000     1.822000000
H     4.264000000     3.371000000     0.912000000
O     4.603000000     0.980000000     0.912000000
H     2.612000000     0.523000000     1.415000000
C     3.896000000    -2.214000000     1.696000000
C     4.998000000    -1.825000000     0.783000000
H     5.442000000    -2.768000000     0.456000000
H     5.815000000    -1.333000000     1.315000000
C     4.571000000    -0.993000000    -0.454000000
C     4.357000000     0.380000000    -0.297000000
C     3.959000000     1.161000000    -1.424000000
H     3.879000000     2.217000000    -1.175000000
C     3.943000000     0.530000000    -2.671000000
O     3.510000000     1.342000000    -3.674000000
C     2.053000000     1.217000000    -3.884000000
H     1.585000000     0.818000000    -2.972000000
C     1.319000000     2.620000000    -3.989000000
C    -0.024000000     2.713000000    -4.262000000
H    -0.470000000     1.840000000    -4.731000000
C     1.999000000     3.783000000    -3.685000000
H     3.079000000     3.849000000    -3.581000000
C     1.352000000     5.028000000    -3.565000000
O     2.037000000     6.142000000    -3.038000000
C     0.052000000     5.145000000    -3.867000000
H    -0.467000000     6.094000000    -3.757000000
C    -0.638000000     3.979000000    -4.304000000
O    -2.000000000     4.094000000    -4.581000000
C    -2.751000000     3.086000000    -5.176000000
C    -3.867000000     2.639000000    -4.507000000
H    -4.222000000     3.087000000    -3.582000000
C    -2.395000000     2.610000000    -6.451000000
H    -1.569000000     3.053000000    -7.001000000
C    -3.122000000     1.540000000    -7.064000000
H    -2.711000000     1.141000000    -7.988000000
C    -4.135000000     0.990000000    -6.291000000
H    -4.592000000     0.054000000    -6.605000000
C    -4.517000000     1.543000000    -5.060000000
O    -5.530000000     0.871000000    -4.405000000
C    -5.276000000     0.026000000    -3.326000000
C    -6.147000000    -0.107000000    -2.268000000
H    -7.109000000     0.396000000    -2.208000000
C    -5.790000000    -0.916000000    -1.178000000
O    -6.726000000    -0.921000000    -0.171000000
C    -6.630000000    -1.680000000     0.997000000
C    -5.903000000    -1.280000000     2.099000000
H    -5.248000000    -0.413000000     2.072000000
C    -7.415000000    -2.869000000     0.996000000
H    -8.037000000    -3.076000000     0.130000000
C    -7.528000000    -3.556000000     2.206000000
H    -8.120000000    -4.466000000     2.269000000
C    -6.848000000    -3.106000000     3.376000000
H    -6.874000000    -3.620000000     4.333000000
C    -6.024000000    -1.975000000     3.278000000
O    -5.398000000    -1.451000000     4.362000000
C    -4.045000000    -1.619000000     4.634000000
C    -3.617000000    -0.815000000     5.647000000
H    -4.388000000    -0.232000000     6.145000000
C    -2.318000000    -0.691000000     5.962000000
O    -1.933000000     0.342000000     6.846000000
C    -0.719000000     0.938000000     6.884000000
C    -0.299000000     1.963000000     5.962000000
H    -0.921000000     2.341000000     5.154000000
C     0.161000000     0.581000000     7.870000000
H    -0.195000000    -0.112000000     8.628000000
C     1.439000000     1.139000000     7.990000000
H     2.082000000     0.773000000     8.788000000
C     1.838000000     2.130000000     7.053000000
H     2.803000000     2.614000000     7.182000000
C     0.943000000     2.545000000     6.112000000
O     1.344000000     3.614000000     5.323000000
C     2.045000000     3.533000000     4.090000000
C     2.492000000     4.771000000     3.509000000
H     2.168000000     5.772000000     3.784000000
C     3.203000000     4.662000000     2.290000000
O     3.446000000     5.852000000     1.616000000
C     3.769000000     5.968000000     0.270000000
C     5.067000000     6.387000000    -0.088000000
H     5.854000000     6.570000000     0.639000000
C     5.393000000     6.586000000    -1.460000000
H     6.297000000     7.106000000    -1.766000000
C     4.383000000     6.513000000    -2.375000000
H     4.742000000     6.806000000    -3.358000000
C     3.053000000     6.089000000    -2.080000000
C     2.761000000     5.803000000    -0.755000000
H     1.758000000     5.534000000    -0.433000000
C    -2.400000000     0.951000000     2.009000000
H    -2.784000000     1.023000000     3.023000000
C    -1.179000000     0.281000000     1.885000000
H    -0.623000000    -0.047000000     2.760000000
C    -0.609000000    -0.022000000     0.652000000
H     0.415000000    -0.499000000     0.611000000
C    -1.294000000     0.438000000    -0.435000000
H    -0.894000000     0.329000000    -1.439000000
C    -2.466000000     1.170000000    -0.292000000
H    -2.973000000     1.630000000    -1.137000000
C    -3.050000000     1.447000000     0.944000000
C    -4.275000000     2.307000000     1.107000000
O    -4.712000000     2.939000000     0.145000000
O    -4.844000000     2.334000000     2.193000000
O    -1.098000000     7.207000000    -1.176000000
H    -0.818000000     6.293000000    -1.227000000
H    -1.979000000     7.210000000    -1.551000000
O    -2.948000000     4.316000000    -1.357000000
H    -3.390000000     4.982000000    -1.884000000
H    -3.655000000     3.877000000    -0.884000000
O    -9.123000000     0.402000000    -0.449000000
H    -8.502000000    -0.306000000    -0.620000000
H    -8.613000000     1.056000000     0.030000000
O    -5.735000000     5.786000000     5.899000000
H    -4.903000000     6.248000000     5.797000000
H    -5.555000000     4.898000000     5.590000000
O    -7.204000000     3.241000000     2.667000000
H    -7.013000000     4.103000000     3.036000000
H    -6.359000000     2.791000000     2.659000000
O    -3.152000000     6.807000000     5.430000000
H    -3.151000000     6.729000000     4.476000000
H    -2.598000000     7.568000000     5.608000000
O    -7.570000000     5.922000000     3.972000000
H    -8.222000000     5.628000000     4.608000000
H    -6.769000000     6.033000000     4.483000000
O    -5.332000000     5.688000000     0.053000000
H    -5.216000000     4.743000000     0.153000000
H    -5.502000000     6.003000000     0.941000000
O    -8.188000000     3.381000000    -2.486000000
H    -7.704000000     3.021000000    -1.743000000
H    -8.092000000     4.329000000    -2.397000000
O    -2.605000000     4.624000000     6.869000000
H    -2.465000000     5.542000000     6.637000000
H    -2.822000000     4.198000000     6.040000000
O    -6.469000000     8.076000000    -1.270000000
H    -7.422000000     7.990000000    -1.231000000
H    -6.143000000     7.389000000    -0.690000000
O    -4.341000000     3.290000000     4.703000000
H    -4.705000000     2.452000000     4.989000000
H    -4.330000000     3.234000000     3.748000000
O    -3.443000000     6.921000000     2.771000000
H    -4.340000000     6.961000000     2.439000000
H    -3.158000000     7.835000000     2.799000000
O    -1.103000000     5.072000000     2.187000000
H    -2.058000000     5.086000000     2.117000000
H    -0.807000000     4.723000000     1.346000000
O    -7.349000000     2.600000000     0.036000000
H    -6.395000000     2.582000000    -0.043000000
H    -7.510000000     2.939000000     0.917000000
O    -3.895000000     7.101000000    -1.902000000
H    -4.520000000     7.807000000    -2.064000000
H    -4.336000000     6.529000000    -1.275000000
O    -0.619000000     3.864000000    -0.227000000
H    -1.414000000     4.188000000    -0.650000000
H    -0.744000000     2.916000000    -0.176000000
O    -6.185000000     7.475000000     2.279000000
H    -6.855000000     7.070000000     2.830000000
H    -6.483000000     8.378000000     2.165000000
O    -9.226000000     1.628000000     3.688000000
H    -8.417000000     2.121000000     3.554000000
H    -9.704000000     1.723000000     2.864000000
