215
-1467.35200
C    -4.476000000    -1.877000000    -1.497000000
H    -4.313000000    -2.403000000    -0.560000000
C    -3.685000000    -1.998000000    -2.629000000
C    -4.055000000    -1.279000000    -3.809000000
H    -3.479000000    -1.505000000    -4.703000000
C    -2.392000000    -2.785000000    -2.524000000
O    -2.489000000    -4.028000000    -1.735000000
H    -1.696000000    -2.076000000    -2.051000000
O    -1.871000000    -3.073000000    -3.824000000
C    -0.553000000    -2.644000000    -3.924000000
C    -0.203000000    -1.336000000    -4.327000000
H    -0.941000000    -0.649000000    -4.732000000
C     1.117000000    -0.955000000    -4.470000000
O     1.372000000     0.367000000    -4.808000000
C     2.078000000    -1.716000000    -3.845000000
C     3.576000000    -1.287000000    -3.911000000
H     4.214000000    -2.156000000    -4.084000000
C     3.989000000    -0.541000000    -2.632000000
C     4.647000000    -1.355000000    -1.661000000
H     4.784000000    -2.425000000    -1.793000000
H     3.745000000    -0.754000000    -4.849000000
C     1.747000000    -2.966000000    -3.313000000
H     2.519000000    -3.563000000    -2.836000000
C     0.418000000    -3.468000000    -3.361000000
C     0.075000000    -4.856000000    -2.806000000
H     0.929000000    -5.535000000    -2.841000000
H    -0.669000000    -5.389000000    -3.401000000
C    -0.172000000    -4.703000000    -1.292000000
C     0.850000000    -4.953000000    -0.422000000
H     1.821000000    -5.218000000    -0.831000000
C    -1.493000000    -4.379000000    -0.802000000
C    -1.781000000    -4.249000000     0.566000000
H    -2.795000000    -3.978000000     0.849000000
C    -0.635000000    -4.431000000     1.400000000
O    -0.883000000    -3.977000000     2.692000000
C    -0.278000000    -2.796000000     3.187000000
C    -1.312000000    -1.969000000     3.999000000
C    -0.806000000    -1.197000000     5.033000000
H     0.253000000    -1.212000000     5.278000000
C    -2.651000000    -1.979000000     3.754000000
H    -3.039000000    -2.699000000     3.037000000
O     0.889000000    -3.196000000     3.898000000
H     0.072000000    -2.193000000     2.337000000
C     0.639000000    -4.781000000     0.935000000
C     1.824000000    -5.077000000     1.842000000
H     2.596000000    -5.724000000     1.420000000
H     1.436000000    -5.445000000     2.795000000
C     2.469000000    -3.759000000     2.181000000
C     3.525000000    -3.309000000     1.366000000
H     3.828000000    -3.957000000     0.548000000
C     2.011000000    -2.901000000     3.148000000
C     2.645000000    -1.630000000     3.343000000
H     2.127000000    -0.891000000     3.949000000
C     3.726000000    -1.247000000     2.591000000
O     4.107000000     0.049000000     2.844000000
C     3.677000000     1.067000000     1.945000000
C     3.360000000     2.283000000     2.727000000
C     3.070000000     2.283000000     4.110000000
H     3.196000000     1.360000000     4.670000000
C     3.173000000     3.480000000     2.003000000
H     3.393000000     3.632000000     0.950000000
O     4.727000000     1.277000000     1.025000000
H     2.799000000     0.617000000     1.460000000
C     4.265000000    -2.080000000     1.580000000
C     5.441000000    -1.537000000     0.652000000
H     5.945000000    -2.405000000     0.221000000
H     6.159000000    -0.965000000     1.244000000
C     4.944000000    -0.675000000    -0.456000000
C     4.587000000     0.656000000    -0.193000000
C     4.020000000     1.401000000    -1.259000000
H     3.724000000     2.437000000    -1.119000000
C     3.711000000     0.828000000    -2.460000000
O     3.052000000     1.521000000    -3.467000000
C     1.580000000     1.259000000    -3.677000000
H     1.274000000     0.785000000    -2.733000000
C     0.786000000     2.541000000    -3.833000000
C    -0.416000000     2.540000000    -4.583000000
H    -0.916000000     1.726000000    -5.101000000
C     1.178000000     3.724000000    -3.183000000
H     2.070000000     3.625000000    -2.570000000
C     0.298000000     4.785000000    -3.107000000
O     0.518000000     5.826000000    -2.252000000
C    -0.881000000     4.761000000    -3.817000000
H    -1.586000000     5.563000000    -3.616000000
C    -1.201000000     3.685000000    -4.548000000
O    -2.337000000     3.843000000    -5.329000000
C    -3.144000000     2.941000000    -5.927000000
C    -3.893000000     2.033000000    -5.135000000
H    -3.754000000     2.159000000    -4.064000000
C    -3.397000000     3.096000000    -7.286000000
H    -2.776000000     3.786000000    -7.851000000
C    -4.341000000     2.253000000    -7.909000000
H    -4.485000000     2.321000000    -8.984000000
C    -4.949000000     1.264000000    -7.078000000
H    -5.682000000     0.630000000    -7.571000000
C    -4.802000000     1.124000000    -5.723000000
O    -5.493000000     0.163000000    -5.053000000
C    -5.117000000    -0.431000000    -3.844000000
C    -5.909000000    -0.328000000    -2.698000000
H    -6.780000000     0.320000000    -2.646000000
C    -5.633000000    -1.081000000    -1.546000000
O    -6.282000000    -0.821000000    -0.328000000
C    -6.189000000    -1.551000000     0.838000000
C    -5.751000000    -0.947000000     2.019000000
H    -5.412000000     0.085000000     1.985000000
C    -6.514000000    -2.897000000     0.870000000
H    -6.783000000    -3.318000000    -0.096000000
C    -6.276000000    -3.713000000     1.967000000
H    -6.388000000    -4.789000000     1.863000000
C    -5.786000000    -3.096000000     3.096000000
H    -5.560000000    -3.821000000     3.873000000
C    -5.484000000    -1.748000000     3.156000000
O    -4.980000000    -1.090000000     4.253000000
C    -3.563000000    -1.206000000     4.486000000
C    -3.103000000    -0.365000000     5.473000000
H    -3.771000000     0.252000000     6.069000000
C    -1.704000000    -0.382000000     5.774000000
O    -1.287000000     0.470000000     6.710000000
C    -0.051000000     0.817000000     7.038000000
C     0.676000000     1.771000000     6.277000000
H     0.244000000     2.120000000     5.342000000
C     0.423000000     0.418000000     8.263000000
H    -0.185000000    -0.260000000     8.858000000
C     1.522000000     1.061000000     8.783000000
H     1.938000000     0.918000000     9.777000000
C     2.162000000     2.086000000     8.098000000
H     2.932000000     2.725000000     8.523000000
C     1.826000000     2.386000000     6.784000000
O     2.362000000     3.492000000     6.137000000
C     2.763000000     3.463000000     4.773000000
C     2.736000000     4.661000000     4.067000000
H     2.524000000     5.606000000     4.561000000
C     2.842000000     4.631000000     2.684000000
O     2.627000000     5.827000000     1.960000000
C     2.721000000     5.990000000     0.625000000
C     3.992000000     6.103000000     0.029000000
H     4.894000000     6.131000000     0.635000000
C     4.112000000     6.202000000    -1.348000000
H     5.079000000     6.303000000    -1.835000000
C     2.936000000     6.260000000    -2.117000000
H     2.929000000     6.540000000    -3.167000000
C     1.706000000     5.983000000    -1.521000000
C     1.611000000     5.921000000    -0.208000000
H     0.633000000     5.751000000     0.235000000
C    -2.670000000     1.123000000     1.133000000
H    -3.096000000     1.050000000     2.130000000
C    -1.661000000     0.263000000     0.741000000
H    -1.321000000    -0.440000000     1.497000000
C    -1.193000000     0.191000000    -0.591000000
H    -0.472000000    -0.669000000    -0.896000000
C    -1.827000000     0.935000000    -1.501000000
H    -1.543000000     0.711000000    -2.526000000
C    -2.752000000     1.885000000    -1.164000000
H    -3.096000000     2.626000000    -1.880000000
C    -3.222000000     1.974000000     0.164000000
C    -4.376000000     2.806000000     0.560000000
O    -4.779000000     3.619000000    -0.259000000
O    -4.921000000     2.824000000     1.663000000
O    -2.082000000     6.832000000     1.764000000
H    -3.008000000     7.076000000     1.743000000
H    -2.066000000     5.990000000     2.218000000
O    -2.920000000     5.928000000    -0.688000000
H    -3.381000000     5.104000000    -0.534000000
H    -2.615000000     6.198000000     0.179000000
O    -7.360000000     5.448000000     3.595000000
H    -6.610000000     5.893000000     3.990000000
H    -7.042000000     4.565000000     3.408000000
O    -7.167000000     2.150000000     0.126000000
H    -6.459000000     2.762000000     0.324000000
H    -7.092000000     1.472000000     0.798000000
O    -6.381000000     3.093000000     3.649000000
H    -6.949000000     2.333000000     3.772000000
H    -5.879000000     2.892000000     2.858000000
O    -6.576000000     5.791000000     0.340000000
H    -6.128000000     4.947000000     0.281000000
H    -7.469000000     5.570000000     0.607000000
O    -4.784000000     7.152000000     1.780000000
H    -5.181000000     6.728000000     1.018000000
H    -5.405000000     6.996000000     2.491000000
O    -4.956000000     6.504000000     4.697000000
H    -5.041000000     7.172000000     5.376000000
H    -4.554000000     5.758000000     5.144000000
O    -2.363000000     2.583000000     5.030000000
H    -1.806000000     2.708000000     5.798000000
H    -1.776000000     2.710000000     4.285000000
O    -8.589000000     3.326000000    -1.937000000
H    -8.229000000     2.800000000    -1.223000000
H    -8.849000000     2.685000000    -2.599000000
O    -3.056000000     4.334000000     2.595000000
H    -3.332000000     4.041000000     3.463000000
H    -3.770000000     4.069000000     2.015000000
O    -3.952000000     7.700000000    -2.631000000
H    -4.799000000     7.282000000    -2.782000000
H    -3.552000000     7.185000000    -1.930000000
O    -4.495000000     4.126000000     5.871000000
H    -5.082000000     3.795000000     5.191000000
H    -3.696000000     3.609000000     5.770000000
O    -8.370000000     1.331000000     2.608000000
H    -8.815000000     0.491000000     2.491000000
H    -8.965000000     1.973000000     2.221000000
O    -0.676000000     3.022000000     2.769000000
H    -0.171000000     3.160000000     1.968000000
H    -1.372000000     3.679000000     2.729000000
O    -5.087000000     3.786000000    -3.005000000
H    -5.660000000     4.552000000    -2.963000000
H    -4.746000000     3.693000000    -2.116000000
O    -6.466000000     6.291000000    -2.678000000
H    -7.366000000     6.338000000    -3.000000000
H    -6.553000000     6.292000000    -1.724000000
O     0.281000000     3.169000000     0.139000000
H     0.082000000     2.288000000    -0.177000000
H    -0.395000000     3.723000000    -0.253000000
O    -9.531000000    -0.319000000    -0.755000000
H    -9.743000000     0.116000000    -1.580000000
H    -8.595000000    -0.509000000    -0.818000000
