215
-1480.10864
C     0.026000000    -0.098000000    -5.259000000
H    -0.748000000    -0.811000000    -4.988000000
C     1.293000000    -0.229000000    -4.716000000
C     2.180000000     0.739000000    -5.012000000
H     3.233000000     0.639000000    -4.763000000
C     1.611000000    -1.330000000    -3.779000000
O     1.038000000    -2.570000000    -4.207000000
H     1.217000000    -1.136000000    -2.770000000
O     3.018000000    -1.621000000    -3.732000000
C     3.528000000    -1.722000000    -2.494000000
C     4.086000000    -0.583000000    -1.877000000
H     4.125000000     0.360000000    -2.417000000
C     4.647000000    -0.757000000    -0.618000000
O     4.979000000     0.389000000     0.086000000
C     4.651000000    -2.021000000     0.062000000
C     5.117000000    -2.111000000     1.547000000
H     5.456000000    -3.132000000     1.735000000
C     3.960000000    -1.741000000     2.442000000
C     3.084000000    -2.704000000     2.929000000
H     3.232000000    -3.689000000     2.493000000
H     5.952000000    -1.465000000     1.823000000
C     4.041000000    -3.066000000    -0.576000000
H     4.059000000    -3.999000000    -0.019000000
C     3.539000000    -2.977000000    -1.881000000
C     2.900000000    -4.250000000    -2.475000000
H     3.382000000    -5.131000000    -2.045000000
H     3.182000000    -4.321000000    -3.528000000
C     1.421000000    -4.161000000    -2.252000000
C     0.854000000    -4.814000000    -1.137000000
H     1.500000000    -5.412000000    -0.500000000
C     0.587000000    -3.434000000    -3.161000000
C    -0.765000000    -3.327000000    -2.858000000
H    -1.368000000    -2.774000000    -3.574000000
C    -1.326000000    -3.920000000    -1.732000000
O    -2.659000000    -3.731000000    -1.380000000
C    -2.936000000    -2.729000000    -0.371000000
C    -4.085000000    -1.794000000    -0.943000000
C    -4.858000000    -1.057000000    -0.011000000
H    -4.638000000    -1.239000000     1.038000000
C    -4.243000000    -1.565000000    -2.346000000
H    -3.798000000    -2.261000000    -3.053000000
O    -3.316000000    -3.429000000     0.810000000
H    -2.002000000    -2.165000000    -0.228000000
C    -0.536000000    -4.643000000    -0.825000000
C    -1.226000000    -5.392000000     0.325000000
H    -0.626000000    -6.287000000     0.506000000
H    -2.273000000    -5.569000000     0.070000000
C    -1.272000000    -4.507000000     1.561000000
C    -0.235000000    -4.452000000     2.426000000
H     0.690000000    -4.977000000     2.198000000
C    -2.354000000    -3.603000000     1.800000000
C    -2.401000000    -2.821000000     2.884000000
H    -3.219000000    -2.148000000     3.128000000
C    -1.341000000    -2.776000000     3.727000000
O    -1.247000000    -1.757000000     4.679000000
C    -0.608000000    -0.462000000     4.256000000
C    -1.434000000     0.770000000     4.564000000
C    -2.850000000     0.612000000     4.603000000
H    -3.338000000    -0.359000000     4.581000000
C    -0.825000000     2.035000000     4.755000000
H     0.261000000     2.049000000     4.766000000
O     0.747000000    -0.388000000     4.731000000
H    -0.462000000    -0.506000000     3.167000000
C    -0.237000000    -3.598000000     3.494000000
C     1.037000000    -3.387000000     4.299000000
H     1.527000000    -4.352000000     4.444000000
H     0.895000000    -3.162000000     5.358000000
C     1.974000000    -2.335000000     3.730000000
C     1.801000000    -0.937000000     4.049000000
C     2.731000000    -0.038000000     3.604000000
H     2.588000000     0.971000000     3.980000000
C     3.764000000    -0.402000000     2.770000000
O     4.497000000     0.679000000     2.285000000
C     4.018000000     0.959000000     0.956000000
H     2.996000000     0.631000000     0.718000000
C     3.769000000     2.470000000     0.721000000
C     3.620000000     3.029000000    -0.525000000
H     3.694000000     2.330000000    -1.354000000
C     3.643000000     3.265000000     1.867000000
H     3.721000000     2.804000000     2.848000000
C     3.164000000     4.541000000     1.732000000
O     2.897000000     5.360000000     2.826000000
C     3.032000000     5.146000000     0.441000000
H     2.657000000     6.166000000     0.435000000
C     3.317000000     4.385000000    -0.681000000
O     3.273000000     5.102000000    -1.893000000
C     3.734000000     4.648000000    -3.102000000
C     2.975000000     3.845000000    -3.958000000
H     1.982000000     3.589000000    -3.599000000
C     4.973000000     5.091000000    -3.542000000
H     5.568000000     5.750000000    -2.916000000
C     5.435000000     4.849000000    -4.764000000
H     6.401000000     5.207000000    -5.111000000
C     4.646000000     4.179000000    -5.677000000
H     5.010000000     3.915000000    -6.667000000
C     3.426000000     3.648000000    -5.257000000
O     2.767000000     2.798000000    -6.136000000
C     1.830000000     1.859000000    -5.791000000
C     0.527000000     2.003000000    -6.320000000
H     0.200000000     2.809000000    -6.973000000
C    -0.438000000     1.060000000    -5.935000000
O    -1.713000000     1.307000000    -6.342000000
C    -2.689000000     0.280000000    -6.175000000
C    -3.741000000     0.459000000    -5.264000000
H    -3.795000000     1.359000000    -4.656000000
C    -2.581000000    -0.834000000    -6.990000000
H    -1.782000000    -0.851000000    -7.727000000
C    -3.523000000    -1.889000000    -6.824000000
H    -3.484000000    -2.746000000    -7.491000000
C    -4.467000000    -1.751000000    -5.811000000
H    -5.238000000    -2.480000000    -5.573000000
C    -4.558000000    -0.632000000    -5.038000000
O    -5.535000000    -0.573000000    -4.054000000
C    -5.323000000    -0.736000000    -2.693000000
C    -6.102000000    -0.043000000    -1.806000000
H    -6.941000000     0.556000000    -2.151000000
C    -5.880000000    -0.235000000    -0.428000000
O    -6.657000000     0.522000000     0.443000000
C    -6.572000000     0.285000000     1.857000000
C    -5.680000000     0.996000000     2.600000000
H    -4.976000000     1.649000000     2.089000000
C    -7.461000000    -0.612000000     2.382000000
H    -8.123000000    -1.212000000     1.762000000
C    -7.543000000    -0.775000000     3.779000000
H    -8.210000000    -1.527000000     4.192000000
C    -6.741000000     0.004000000     4.573000000
H    -6.848000000    -0.017000000     5.654000000
C    -5.772000000     0.893000000     4.047000000
O    -4.952000000     1.634000000     4.881000000
C    -3.631000000     1.759000000     4.701000000
C    -3.035000000     3.019000000     4.814000000
H    -3.728000000     3.852000000     4.900000000
C    -1.670000000     3.145000000     4.856000000
O    -1.169000000     4.402000000     5.075000000
C     0.144000000     4.638000000     5.112000000
C     0.767000000     4.689000000     6.370000000
H     0.240000000     4.576000000     7.313000000
C     2.147000000     4.835000000     6.394000000
H     2.696000000     4.834000000     7.332000000
C     2.841000000     5.013000000     5.213000000
H     3.919000000     5.125000000     5.301000000
C     2.204000000     5.033000000     3.956000000
C     0.812000000     4.816000000     3.955000000
H     0.371000000     4.647000000     2.976000000
C    -2.176000000     1.133000000    -0.252000000
H    -3.259000000     1.061000000    -0.194000000
C    -1.362000000     0.422000000     0.616000000
H    -1.842000000    -0.200000000     1.368000000
C    -0.005000000     0.533000000     0.544000000
H     0.665000000    -0.037000000     1.255000000
C     0.577000000     1.155000000    -0.563000000
H     1.636000000     1.099000000    -0.804000000
C    -0.231000000     1.894000000    -1.429000000
H     0.248000000     2.409000000    -2.258000000
C    -1.602000000     1.920000000    -1.240000000
C    -2.479000000     2.785000000    -2.145000000
O    -2.111000000     3.306000000    -3.122000000
O    -3.654000000     2.938000000    -1.903000000
O    -5.436000000     7.034000000    -4.336000000
H    -5.802000000     7.686000000    -3.739000000
H    -4.516000000     6.967000000    -4.084000000
O    -2.084000000     7.047000000    -5.621000000
H    -1.454000000     6.702000000    -6.254000000
H    -2.675000000     6.315000000    -5.447000000
O    -7.231000000     1.977000000    -5.145000000
H    -7.916000000     1.563000000    -4.622000000
H    -6.712000000     2.473000000    -4.511000000
O     1.565000000     7.668000000    -1.583000000
H     0.813000000     7.526000000    -2.158000000
H     1.181000000     7.908000000    -0.740000000
O    -5.445000000     5.837000000     0.504000000
H    -6.215000000     6.307000000     0.824000000
H    -5.771000000     4.964000000     0.285000000
O    -8.703000000     3.695000000    -2.350000000
H    -8.651000000     4.176000000    -1.524000000
H    -7.863000000     3.861000000    -2.777000000
O    -3.230000000     5.597000000    -3.393000000
H    -3.224000000     5.935000000    -2.498000000
H    -2.845000000     4.723000000    -3.322000000
O    -3.109000000     6.338000000     2.231000000
H    -3.614000000     6.168000000     1.436000000
H    -3.709000000     6.826000000     2.795000000
O    -0.340000000     6.851000000     1.840000000
H    -1.273000000     6.706000000     1.996000000
H    -0.034000000     6.035000000     1.444000000
O    -3.742000000     3.690000000    -8.296000000
H    -3.256000000     3.833000000    -7.483000000
H    -4.573000000     3.307000000    -8.014000000
O    -0.954000000     4.274000000     0.364000000
H    -0.516000000     3.431000000     0.485000000
H    -0.856000000     4.464000000    -0.569000000
O    -0.085000000     5.063000000    -3.765000000
H    -0.517000000     5.817000000    -4.166000000
H    -0.760000000     4.385000000    -3.742000000
O    -2.415000000     3.805000000    -5.935000000
H    -1.951000000     2.992000000    -6.136000000
H    -2.675000000     3.712000000    -5.018000000
O    -5.328000000     3.554000000    -3.947000000
H    -4.912000000     4.400000000    -4.118000000
H    -4.851000000     3.200000000    -3.197000000
O    -1.488000000     9.022000000    -0.604000000
H    -1.839000000     8.306000000    -0.075000000
H    -1.258000000     8.614000000    -1.439000000
O    -5.281000000     7.895000000    -1.520000000
H    -5.108000000     7.209000000    -0.875000000
H    -6.232000000     8.004000000    -1.505000000
O    -2.930000000     5.896000000    -0.725000000
H    -3.737000000     5.381000000    -0.710000000
H    -2.290000000     5.352000000    -0.267000000
O    -0.940000000     7.924000000    -3.229000000
H    -1.629000000     7.283000000    -3.408000000
H    -0.871000000     8.433000000    -4.037000000
O    -5.960000000     3.445000000    -0.599000000
H    -5.191000000     3.484000000    -1.167000000
H    -6.007000000     2.530000000    -0.322000000
