215
-1447.21366
C    -4.884000000    -1.994000000    -0.064000000
H    -4.561000000    -2.706000000     0.691000000
C    -4.210000000    -1.969000000    -1.282000000
C    -4.532000000    -0.981000000    -2.247000000
H    -3.958000000    -1.004000000    -3.170000000
C    -2.970000000    -2.867000000    -1.491000000
O    -2.982000000    -4.100000000    -0.719000000
H    -2.053000000    -2.331000000    -1.204000000
O    -2.665000000    -3.141000000    -2.859000000
C    -1.369000000    -2.863000000    -3.229000000
C    -1.044000000    -1.622000000    -3.817000000
H    -1.844000000    -0.909000000    -4.002000000
C     0.287000000    -1.355000000    -4.172000000
O     0.530000000    -0.092000000    -4.697000000
C     1.279000000    -2.261000000    -3.947000000
C     2.728000000    -1.964000000    -4.325000000
H     3.258000000    -2.918000000    -4.288000000
C     3.474000000    -1.080000000    -3.310000000
C     4.121000000    -1.650000000    -2.254000000
H     4.305000000    -2.715000000    -2.145000000
H     2.851000000    -1.484000000    -5.298000000
C     1.029000000    -3.477000000    -3.425000000
H     1.825000000    -4.137000000    -3.089000000
C    -0.309000000    -3.734000000    -3.012000000
C    -0.599000000    -5.044000000    -2.343000000
H     0.196000000    -5.757000000    -2.572000000
H    -1.509000000    -5.482000000    -2.758000000
C    -0.631000000    -4.867000000    -0.788000000
C     0.599000000    -4.862000000    -0.061000000
H     1.492000000    -5.153000000    -0.607000000
C    -1.755000000    -4.406000000    -0.066000000
C    -1.675000000    -4.096000000     1.325000000
H    -2.524000000    -3.702000000     1.877000000
C    -0.413000000    -4.185000000     2.016000000
O    -0.452000000    -3.836000000     3.319000000
C     0.126000000    -2.554000000     3.701000000
C    -0.830000000    -1.738000000     4.584000000
C    -0.445000000    -0.576000000     5.184000000
H     0.538000000    -0.226000000     4.880000000
C    -2.207000000    -2.135000000     4.703000000
H    -2.614000000    -2.980000000     4.154000000
O     1.501000000    -2.710000000     4.119000000
H     0.178000000    -1.898000000     2.819000000
C     0.697000000    -4.611000000     1.320000000
C     2.022000000    -4.673000000     2.004000000
H     2.616000000    -5.384000000     1.427000000
H     2.016000000    -5.119000000     3.000000000
C     2.794000000    -3.453000000     2.076000000
C     3.743000000    -3.085000000     1.105000000
H     4.022000000    -3.814000000     0.348000000
C     2.537000000    -2.578000000     3.198000000
C     3.184000000    -1.297000000     3.150000000
H     2.881000000    -0.601000000     3.929000000
C     3.978000000    -0.893000000     2.115000000
O     4.304000000     0.382000000     2.049000000
C     3.779000000     1.104000000     0.895000000
C     3.494000000     2.555000000     1.378000000
C     2.816000000     2.697000000     2.599000000
H     2.632000000     1.795000000     3.179000000
C     3.794000000     3.693000000     0.608000000
H     4.238000000     3.659000000    -0.384000000
O     4.752000000     1.170000000    -0.184000000
H     2.809000000     0.636000000     0.670000000
C     4.266000000    -1.821000000     1.074000000
C     5.267000000    -1.542000000    -0.053000000
H     5.903000000    -2.398000000    -0.286000000
H     6.057000000    -0.877000000     0.302000000
C     4.600000000    -0.875000000    -1.257000000
C     4.498000000     0.476000000    -1.295000000
C     3.884000000     1.131000000    -2.344000000
H     3.737000000     2.208000000    -2.334000000
C     3.448000000     0.303000000    -3.407000000
O     2.654000000     0.947000000    -4.295000000
C     1.212000000     0.977000000    -3.997000000
H     1.279000000     0.822000000    -2.910000000
C     0.607000000     2.282000000    -4.330000000
C    -0.750000000     2.329000000    -4.598000000
H    -1.299000000     1.405000000    -4.758000000
C     1.273000000     3.488000000    -3.944000000
H     2.305000000     3.511000000    -3.601000000
C     0.609000000     4.723000000    -3.980000000
O     1.102000000     5.918000000    -3.551000000
C    -0.703000000     4.739000000    -4.387000000
H    -1.256000000     5.643000000    -4.143000000
C    -1.405000000     3.562000000    -4.627000000
O    -2.588000000     3.618000000    -5.226000000
C    -3.577000000     2.685000000    -5.187000000
C    -4.185000000     2.431000000    -3.939000000
H    -3.904000000     3.008000000    -3.061000000
C    -3.933000000     2.057000000    -6.356000000
H    -3.449000000     2.228000000    -7.314000000
C    -4.803000000     0.979000000    -6.275000000
H    -5.068000000     0.478000000    -7.202000000
C    -5.414000000     0.604000000    -5.113000000
H    -6.072000000    -0.259000000    -5.177000000
C    -5.124000000     1.332000000    -3.896000000
O    -5.814000000     1.036000000    -2.724000000
C    -5.505000000    -0.005000000    -1.951000000
C    -6.208000000    -0.104000000    -0.750000000
H    -6.926000000     0.668000000    -0.487000000
C    -5.864000000    -1.027000000     0.183000000
O    -6.477000000    -0.872000000     1.435000000
C    -6.305000000    -1.722000000     2.484000000
C    -5.616000000    -1.219000000     3.587000000
H    -5.242000000    -0.202000000     3.499000000
C    -6.732000000    -3.066000000     2.471000000
H    -7.312000000    -3.488000000     1.655000000
C    -6.381000000    -3.881000000     3.527000000
H    -6.686000000    -4.924000000     3.509000000
C    -5.644000000    -3.393000000     4.591000000
H    -5.365000000    -3.999000000     5.449000000
C    -5.240000000    -2.045000000     4.635000000
O    -4.445000000    -1.679000000     5.685000000
C    -3.123000000    -1.352000000     5.474000000
C    -2.655000000    -0.139000000     6.053000000
H    -3.357000000     0.428000000     6.660000000
C    -1.316000000     0.181000000     5.967000000
O    -0.885000000     1.378000000     6.614000000
C     0.383000000     1.901000000     6.526000000
C     0.588000000     2.887000000     5.617000000
H    -0.227000000     3.296000000     5.025000000
C     1.381000000     1.187000000     7.115000000
H     1.188000000     0.263000000     7.655000000
C     2.653000000     1.557000000     6.868000000
H     3.373000000     0.942000000     7.401000000
C     2.973000000     2.674000000     6.092000000
H     3.972000000     3.089000000     5.984000000
C     1.917000000     3.268000000     5.415000000
O     2.197000000     4.220000000     4.417000000
C     2.566000000     3.960000000     3.133000000
C     2.836000000     5.068000000     2.337000000
H     2.572000000     6.072000000     2.660000000
C     3.438000000     4.957000000     1.136000000
O     3.723000000     6.116000000     0.432000000
C     3.635000000     6.002000000    -0.943000000
C     4.794000000     6.024000000    -1.717000000
H     5.706000000     6.081000000    -1.129000000
C     4.766000000     5.846000000    -3.052000000
H     5.696000000     5.738000000    -3.605000000
C     3.600000000     5.815000000    -3.727000000
H     3.462000000     5.592000000    -4.782000000
C     2.370000000     6.051000000    -2.985000000
C     2.431000000     6.102000000    -1.601000000
H     1.499000000     6.049000000    -1.043000000
C    -2.727000000     0.045000000     1.260000000
H    -3.170000000    -0.085000000     2.244000000
C    -1.663000000    -0.723000000     0.778000000
H    -1.295000000    -1.540000000     1.393000000
C    -1.000000000    -0.292000000    -0.388000000
H    -0.085000000    -0.838000000    -0.713000000
C    -1.378000000     0.849000000    -1.072000000
H    -0.838000000     1.221000000    -1.939000000
C    -2.484000000     1.532000000    -0.567000000
H    -2.749000000     2.481000000    -1.027000000
C    -3.138000000     1.174000000     0.617000000
C    -4.173000000     2.032000000     1.144000000
O    -4.823000000     2.854000000     0.469000000
O    -4.370000000     1.964000000     2.338000000
O    -3.601000000     4.022000000     5.549000000
H    -3.202000000     3.930000000     6.414000000
H    -3.172000000     4.788000000     5.168000000
O    -7.303000000     5.331000000     4.718000000
H    -6.864000000     5.593000000     5.527000000
H    -6.598000000     5.003000000     4.159000000
O    -5.626000000     4.565000000     2.802000000
H    -5.126000000     3.812000000     2.489000000
H    -4.972000000     5.254000000     2.922000000
O    -9.012000000     4.309000000     2.926000000
H    -8.484000000     4.736000000     3.601000000
H    -8.802000000     4.784000000     2.122000000
O    -7.861000000     1.837000000     3.138000000
H    -8.298000000     2.678000000     3.002000000
H    -6.930000000     2.030000000     3.026000000
O    -0.466000000     5.366000000     2.273000000
H    -0.224000000     6.116000000     2.816000000
H    -0.912000000     4.769000000     2.873000000
O    -5.410000000     1.929000000     4.940000000
H    -4.792000000     2.647000000     5.074000000
H    -5.256000000     1.644000000     4.039000000
O    -5.331000000     7.507000000     0.557000000
H    -4.977000000     6.666000000     0.271000000
H    -5.770000000     7.313000000     1.386000000
O    -9.885000000     2.587000000    -2.014000000
H    -9.138000000     2.980000000    -1.562000000
H    -9.638000000     2.597000000    -2.939000000
O    -7.629000000     3.518000000    -0.837000000
H    -6.744000000     3.250000000    -0.587000000
H    -7.832000000     4.247000000    -0.251000000
O    -2.126000000     3.244000000     3.266000000
H    -1.961000000     2.909000000     4.147000000
H    -2.937000000     2.814000000     2.995000000
O    -3.729000000     6.356000000     2.757000000
H    -3.457000000     7.143000000     2.285000000
H    -2.927000000     5.841000000     2.845000000
O    -9.881000000     0.537000000     1.287000000
H   -10.154000000     1.200000000     1.921000000
H    -8.962000000     0.369000000     1.495000000
O    -0.287000000     1.810000000     2.070000000
H    -1.065000000     2.257000000     2.401000000
H    -0.583000000     0.918000000     1.887000000
O    -4.499000000     5.195000000    -0.652000000
H    -4.668000000     4.312000000    -0.323000000
H    -3.545000000     5.268000000    -0.663000000
O    -1.725000000     5.049000000    -0.674000000
H    -1.119000000     5.338000000     0.008000000
H    -1.366000000     4.214000000    -0.975000000
O     0.567000000     3.409000000     0.108000000
H     0.367000000     2.843000000     0.854000000
H     0.514000000     4.297000000     0.461000000
O    -8.265000000     0.019000000     5.162000000
H    -7.489000000    -0.473000000     5.431000000
H    -7.928000000     0.695000000     4.573000000
O    -5.511000000     5.866000000    -3.208000000
H    -4.738000000     6.360000000    -3.481000000
H    -5.272000000     5.498000000    -2.357000000
