215
-1442.22056
C    -4.570000000    -2.904000000     0.194000000
H    -4.106000000    -3.756000000     0.683000000
C    -3.937000000    -2.287000000    -0.901000000
C    -4.495000000    -1.154000000    -1.430000000
H    -3.971000000    -0.634000000    -2.228000000
C    -2.671000000    -2.870000000    -1.445000000
O    -2.435000000    -4.239000000    -0.904000000
H    -1.814000000    -2.302000000    -1.054000000
O    -2.636000000    -2.840000000    -2.873000000
C    -1.442000000    -2.588000000    -3.484000000
C    -1.312000000    -1.425000000    -4.225000000
H    -2.173000000    -0.762000000    -4.239000000
C    -0.103000000    -0.928000000    -4.775000000
O    -0.027000000     0.367000000    -5.234000000
C     1.079000000    -1.685000000    -4.537000000
C     2.441000000    -1.129000000    -4.936000000
H     3.070000000    -1.962000000    -5.258000000
C     3.032000000    -0.359000000    -3.847000000
C     3.892000000    -1.014000000    -2.947000000
H     4.078000000    -2.078000000    -3.068000000
H     2.417000000    -0.492000000    -5.822000000
C     0.978000000    -2.921000000    -3.907000000
H     1.819000000    -3.585000000    -3.724000000
C    -0.254000000    -3.314000000    -3.261000000
C    -0.243000000    -4.730000000    -2.717000000
H     0.615000000    -5.350000000    -2.983000000
H    -1.039000000    -5.432000000    -2.973000000
C    -0.193000000    -4.741000000    -1.156000000
C     1.097000000    -4.860000000    -0.631000000
H     1.988000000    -5.114000000    -1.199000000
C    -1.271000000    -4.576000000    -0.343000000
C    -1.131000000    -4.447000000     1.039000000
H    -1.936000000    -4.085000000     1.673000000
C     0.134000000    -4.457000000     1.579000000
O     0.282000000    -4.231000000     2.934000000
C     0.764000000    -2.833000000     3.236000000
C    -0.102000000    -2.049000000     4.161000000
C     0.273000000    -0.719000000     4.548000000
H     1.240000000    -0.333000000     4.234000000
C    -1.418000000    -2.478000000     4.508000000
H    -1.778000000    -3.430000000     4.127000000
O     2.134000000    -2.851000000     3.550000000
H     0.490000000    -2.269000000     2.331000000
C     1.279000000    -4.703000000     0.764000000
C     2.708000000    -4.761000000     1.388000000
H     3.293000000    -5.403000000     0.726000000
H     2.682000000    -5.181000000     2.395000000
C     3.258000000    -3.307000000     1.407000000
C     3.983000000    -2.798000000     0.332000000
H     4.250000000    -3.417000000    -0.521000000
C     2.980000000    -2.497000000     2.513000000
C     3.560000000    -1.217000000     2.520000000
H     3.380000000    -0.464000000     3.283000000
C     4.313000000    -0.744000000     1.468000000
O     4.682000000     0.603000000     1.545000000
C     4.048000000     1.626000000     0.719000000
C     3.822000000     2.929000000     1.437000000
C     3.824000000     2.974000000     2.808000000
H     4.056000000     2.072000000     3.369000000
C     3.582000000     4.090000000     0.711000000
H     3.486000000     4.057000000    -0.372000000
O     4.695000000     1.772000000    -0.625000000
H     3.021000000     1.278000000     0.538000000
C     4.482000000    -1.529000000     0.363000000
C     5.280000000    -1.038000000    -0.848000000
H     5.784000000    -1.860000000    -1.361000000
H     6.072000000    -0.331000000    -0.592000000
C     4.376000000    -0.339000000    -1.849000000
C     4.114000000     1.026000000    -1.672000000
C     3.306000000     1.650000000    -2.614000000
H     3.075000000     2.687000000    -2.385000000
C     2.800000000     1.006000000    -3.724000000
O     1.903000000     1.705000000    -4.568000000
C     0.476000000     1.387000000    -4.347000000
H     0.474000000     1.056000000    -3.298000000
C    -0.398000000     2.672000000    -4.286000000
C    -1.764000000     2.617000000    -4.362000000
H    -2.245000000     1.684000000    -4.647000000
C     0.192000000     3.829000000    -3.790000000
H     1.267000000     3.853000000    -3.631000000
C    -0.526000000     4.992000000    -3.529000000
O    -0.021000000     6.168000000    -3.009000000
C    -1.910000000     4.981000000    -3.734000000
H    -2.480000000     5.869000000    -3.476000000
C    -2.560000000     3.700000000    -4.004000000
O    -3.919000000     3.678000000    -4.133000000
C    -4.645000000     2.548000000    -4.032000000
C    -5.195000000     2.230000000    -2.786000000
H    -5.129000000     2.865000000    -1.906000000
C    -5.124000000     1.942000000    -5.243000000
H    -4.587000000     2.228000000    -6.144000000
C    -5.935000000     0.849000000    -5.211000000
H    -6.228000000     0.286000000    -6.093000000
C    -6.355000000     0.393000000    -3.961000000
H    -6.899000000    -0.548000000    -3.927000000
C    -6.016000000     1.063000000    -2.763000000
O    -6.381000000     0.461000000    -1.617000000
C    -5.769000000    -0.694000000    -1.112000000
C    -6.399000000    -1.300000000    -0.024000000
H    -7.381000000    -0.920000000     0.248000000
C    -5.798000000    -2.332000000     0.668000000
O    -6.521000000    -2.937000000     1.719000000
C    -5.876000000    -3.415000000     2.828000000
C    -5.033000000    -2.579000000     3.531000000
H    -4.896000000    -1.534000000     3.267000000
C    -5.915000000    -4.747000000     3.169000000
H    -6.368000000    -5.488000000     2.514000000
C    -5.194000000    -5.313000000     4.237000000
H    -5.258000000    -6.378000000     4.446000000
C    -4.460000000    -4.375000000     5.055000000
H    -3.935000000    -4.681000000     5.957000000
C    -4.278000000    -3.053000000     4.632000000
O    -3.571000000    -2.128000000     5.446000000
C    -2.280000000    -1.704000000     5.216000000
C    -1.845000000    -0.479000000     5.595000000
H    -2.510000000     0.102000000     6.228000000
C    -0.601000000     0.009000000     5.364000000
O    -0.208000000     1.177000000     6.061000000
C     1.053000000     1.549000000     6.141000000
C     1.568000000     2.603000000     5.314000000
H     0.863000000     3.208000000     4.748000000
C     1.819000000     0.994000000     7.156000000
H     1.494000000     0.145000000     7.752000000
C     3.076000000     1.599000000     7.375000000
H     3.603000000     1.318000000     8.283000000
C     3.515000000     2.684000000     6.613000000
H     4.327000000     3.350000000     6.895000000
C     2.813000000     3.160000000     5.500000000
O     3.204000000     4.204000000     4.774000000
C     3.411000000     4.166000000     3.395000000
C     3.266000000     5.349000000     2.685000000
H     2.970000000     6.249000000     3.218000000
C     3.333000000     5.350000000     1.287000000
O     3.239000000     6.537000000     0.539000000
C     2.897000000     6.629000000    -0.785000000
C     3.945000000     6.884000000    -1.686000000
H     4.946000000     7.087000000    -1.313000000
C     3.629000000     6.642000000    -3.041000000
H     4.303000000     6.889000000    -3.857000000
C     2.300000000     6.414000000    -3.400000000
H     1.983000000     6.310000000    -4.435000000
C     1.243000000     6.262000000    -2.543000000
C     1.578000000     6.273000000    -1.172000000
H     0.834000000     6.086000000    -0.403000000
C    -2.629000000    -0.147000000     1.545000000
H    -3.172000000    -0.719000000     2.294000000
C    -1.390000000    -0.696000000     1.089000000
H    -1.030000000    -1.636000000     1.499000000
C    -0.578000000     0.005000000     0.190000000
H     0.377000000    -0.463000000     0.006000000
C    -0.953000000     1.242000000    -0.269000000
H    -0.314000000     1.849000000    -0.905000000
C    -2.199000000     1.753000000     0.161000000
H    -2.598000000     2.708000000    -0.170000000
C    -3.054000000     1.095000000     1.070000000
C    -4.378000000     1.628000000     1.592000000
O    -4.676000000     2.816000000     1.404000000
O    -5.014000000     0.940000000     2.411000000
O    -4.769000000     2.482000000     7.558000000
H    -3.971000000     2.281000000     8.047000000
H    -4.711000000     1.937000000     6.772000000
O    -2.537000000     2.859000000     4.967000000
H    -1.806000000     3.028000000     5.562000000
H    -2.553000000     3.620000000     4.386000000
O    -6.687000000     4.020000000     2.841000000
H    -6.362000000     4.713000000     3.415000000
H    -5.898000000     3.637000000     2.457000000
O    -9.352000000     3.966000000     2.952000000
H    -9.617000000     3.151000000     2.526000000
H    -8.418000000     4.044000000     2.759000000
O    -7.676000000     0.168000000     2.866000000
H    -7.583000000    -0.715000000     2.510000000
H    -6.809000000     0.560000000     2.764000000
O    -4.620000000     1.268000000     4.936000000
H    -3.890000000     1.886000000     4.944000000
H    -4.755000000     1.067000000     4.010000000
O    -6.651000000     6.656000000    -0.703000000
H    -6.011000000     6.251000000    -0.117000000
H    -6.382000000     6.379000000    -1.579000000
O    -9.576000000     0.767000000     4.687000000
H    -9.328000000     0.548000000     3.789000000
H    -8.809000000     1.217000000     5.043000000
O   -10.528000000     2.042000000     0.893000000
H   -10.531000000     2.626000000     0.135000000
H    -9.656000000     1.648000000     0.890000000
O    -7.771000000     2.148000000     0.308000000
H    -7.349000000     2.669000000     0.991000000
H    -7.253000000     1.345000000     0.265000000
O    -7.172000000     2.343000000     4.923000000
H    -7.238000000     2.903000000     4.149000000
H    -6.247000000     2.104000000     4.967000000
O    -2.996000000     4.372000000     2.741000000
H    -2.648000000     4.912000000     2.032000000
H    -3.506000000     3.694000000     2.298000000
O    -3.273000000     6.464000000     5.325000000
H    -3.483000000     6.582000000     6.252000000
H    -3.287000000     5.516000000     5.196000000
O    -0.207000000     1.958000000     2.913000000
H    -0.502000000     1.637000000     3.766000000
H    -0.678000000     1.419000000     2.278000000
O    -4.321000000     4.753000000    -0.399000000
H    -4.550000000     4.126000000     0.288000000
H    -3.372000000     4.669000000    -0.493000000
O    -1.901000000     5.924000000     0.771000000
H    -1.540000000     6.804000000     0.663000000
H    -1.134000000     5.360000000     0.869000000
O     0.284000000     4.600000000     1.615000000
H     0.119000000     5.063000000     2.436000000
H     0.169000000     3.676000000     1.833000000
O    -5.644000000    -0.796000000     6.830000000
H    -6.500000000    -1.079000000     6.507000000
H    -5.263000000    -0.306000000     6.102000000
O    -5.610000000     5.849000000    -3.065000000
H    -4.963000000     6.143000000    -3.707000000
H    -5.152000000     5.185000000    -2.551000000
