215
-1449.70412
C    -4.310000000    -2.934000000     0.500000000
H    -3.600000000    -3.530000000     1.068000000
C    -3.915000000    -2.640000000    -0.808000000
C    -4.776000000    -1.773000000    -1.532000000
H    -4.518000000    -1.550000000    -2.564000000
C    -2.579000000    -3.091000000    -1.431000000
O    -2.270000000    -4.377000000    -0.926000000
H    -1.777000000    -2.380000000    -1.184000000
O    -2.555000000    -3.092000000    -2.928000000
C    -1.444000000    -2.644000000    -3.593000000
C    -1.540000000    -1.372000000    -4.184000000
H    -2.427000000    -0.762000000    -4.035000000
C    -0.415000000    -0.750000000    -4.704000000
O    -0.451000000     0.539000000    -5.028000000
C     0.795000000    -1.429000000    -4.607000000
C     2.105000000    -0.731000000    -5.092000000
H     2.770000000    -1.529000000    -5.428000000
C     2.795000000     0.099000000    -3.969000000
C     3.794000000    -0.554000000    -3.237000000
H     4.086000000    -1.570000000    -3.491000000
H     2.154000000    -0.228000000    -6.060000000
C     0.951000000    -2.658000000    -4.039000000
H     1.926000000    -3.128000000    -3.945000000
C    -0.200000000    -3.258000000    -3.541000000
C    -0.106000000    -4.695000000    -2.947000000
H     0.642000000    -5.332000000    -3.423000000
H    -0.937000000    -5.371000000    -3.158000000
C     0.115000000    -4.734000000    -1.406000000
C     1.413000000    -4.746000000    -0.930000000
H     2.202000000    -4.827000000    -1.673000000
C    -0.911000000    -4.526000000    -0.469000000
C    -0.641000000    -4.401000000     0.881000000
H    -1.457000000    -4.194000000     1.569000000
C     0.684000000    -4.522000000     1.354000000
O     0.871000000    -4.249000000     2.719000000
C     1.273000000    -2.893000000     3.071000000
C     0.401000000    -2.282000000     4.178000000
C     0.781000000    -1.038000000     4.679000000
H     1.683000000    -0.598000000     4.261000000
C    -0.803000000    -2.940000000     4.497000000
H    -1.068000000    -3.922000000     4.113000000
O     2.718000000    -2.903000000     3.368000000
H     1.126000000    -2.195000000     2.234000000
C     1.699000000    -4.636000000     0.425000000
C     3.112000000    -4.572000000     0.883000000
H     3.772000000    -5.141000000     0.226000000
H     3.260000000    -5.152000000     1.796000000
C     3.757000000    -3.221000000     1.095000000
C     4.369000000    -2.605000000    -0.033000000
H     4.592000000    -3.230000000    -0.894000000
C     3.543000000    -2.519000000     2.300000000
C     3.837000000    -1.166000000     2.255000000
H     3.770000000    -0.570000000     3.161000000
C     4.328000000    -0.495000000     1.137000000
O     4.646000000     0.829000000     1.320000000
C     3.733000000     1.733000000     0.663000000
C     3.535000000     3.041000000     1.351000000
C     3.401000000     2.971000000     2.753000000
H     3.560000000     2.010000000     3.235000000
C     3.341000000     4.231000000     0.645000000
H     3.411000000     4.185000000    -0.439000000
O     4.317000000     2.040000000    -0.713000000
H     2.755000000     1.232000000     0.608000000
C     4.604000000    -1.228000000    -0.031000000
C     5.301000000    -0.608000000    -1.172000000
H     5.703000000    -1.440000000    -1.753000000
H     6.100000000     0.080000000    -0.888000000
C     4.285000000     0.060000000    -2.080000000
C     3.864000000     1.367000000    -1.820000000
C     2.964000000     2.024000000    -2.688000000
H     2.765000000     3.073000000    -2.483000000
C     2.318000000     1.309000000    -3.601000000
O     1.365000000     2.000000000    -4.306000000
C     0.025000000     1.519000000    -4.062000000
H     0.004000000     1.042000000    -3.071000000
C    -0.860000000     2.771000000    -3.963000000
C    -2.242000000     2.619000000    -3.869000000
H    -2.726000000     1.647000000    -3.809000000
C    -0.358000000     4.076000000    -3.711000000
H     0.719000000     4.224000000    -3.734000000
C    -1.191000000     5.115000000    -3.344000000
O    -0.620000000     6.282000000    -3.052000000
C    -2.561000000     4.941000000    -3.312000000
H    -3.124000000     5.822000000    -3.013000000
C    -3.082000000     3.710000000    -3.593000000
O    -4.470000000     3.526000000    -3.417000000
C    -5.214000000     2.403000000    -3.641000000
C    -5.477000000     1.617000000    -2.549000000
H    -5.030000000     1.730000000    -1.564000000
C    -5.528000000     1.930000000    -4.892000000
H    -5.133000000     2.435000000    -5.770000000
C    -6.271000000     0.785000000    -5.120000000
H    -6.566000000     0.511000000    -6.130000000
C    -6.768000000     0.101000000    -3.991000000
H    -7.390000000    -0.783000000    -4.108000000
C    -6.286000000     0.471000000    -2.751000000
O    -6.717000000    -0.269000000    -1.658000000
C    -5.929000000    -1.226000000    -0.981000000
C    -6.358000000    -1.597000000     0.239000000
H    -7.248000000    -1.177000000     0.701000000
C    -5.567000000    -2.474000000     1.002000000
O    -5.950000000    -2.887000000     2.261000000
C    -5.137000000    -3.602000000     3.064000000
C    -4.258000000    -2.950000000     3.934000000
H    -4.315000000    -1.870000000     4.044000000
C    -5.084000000    -4.963000000     2.958000000
H    -5.784000000    -5.447000000     2.281000000
C    -4.200000000    -5.715000000     3.728000000
H    -4.151000000    -6.801000000     3.741000000
C    -3.474000000    -5.086000000     4.720000000
H    -2.919000000    -5.700000000     5.424000000
C    -3.474000000    -3.635000000     4.818000000
O    -2.781000000    -2.913000000     5.763000000
C    -1.637000000    -2.336000000     5.412000000
C    -1.254000000    -1.143000000     5.980000000
H    -1.963000000    -0.664000000     6.651000000
C    -0.070000000    -0.469000000     5.624000000
O     0.043000000     0.805000000     6.112000000
C     1.333000000     1.408000000     6.328000000
C     1.563000000     2.448000000     5.427000000
H     0.959000000     2.504000000     4.525000000
C     2.103000000     1.281000000     7.508000000
H     1.827000000     0.576000000     8.288000000
C     3.311000000     2.040000000     7.637000000
H     3.963000000     1.909000000     8.497000000
C     3.583000000     2.987000000     6.666000000
H     4.507000000     3.536000000     6.828000000
C     2.685000000     3.257000000     5.597000000
O     3.011000000     4.248000000     4.777000000
C     2.968000000     4.151000000     3.390000000
C     2.784000000     5.368000000     2.674000000
H     2.573000000     6.248000000     3.275000000
C     2.985000000     5.400000000     1.309000000
O     2.566000000     6.520000000     0.657000000
C     2.321000000     6.515000000    -0.698000000
C     3.236000000     7.172000000    -1.533000000
H     4.232000000     7.356000000    -1.138000000
C     2.870000000     7.568000000    -2.848000000
H     3.595000000     8.101000000    -3.457000000
C     1.586000000     7.277000000    -3.365000000
H     1.230000000     7.436000000    -4.380000000
C     0.646000000     6.523000000    -2.541000000
C     1.025000000     6.208000000    -1.233000000
H     0.264000000     5.739000000    -0.614000000
C    -2.628000000    -0.312000000     1.501000000
H    -3.308000000    -0.972000000     2.033000000
C    -1.353000000    -0.668000000     1.158000000
H    -0.864000000    -1.482000000     1.687000000
C    -0.639000000     0.130000000     0.276000000
H     0.374000000    -0.176000000    -0.091000000
C    -1.236000000     1.351000000    -0.213000000
H    -0.654000000     1.998000000    -0.865000000
C    -2.529000000     1.732000000     0.171000000
H    -2.943000000     2.724000000     0.011000000
C    -3.195000000     0.874000000     1.071000000
C    -4.614000000     1.104000000     1.367000000
O    -5.183000000     2.032000000     0.821000000
O    -5.184000000     0.693000000     2.391000000
O    -2.216000000     2.747000000     5.178000000
H    -1.703000000     3.098000000     5.906000000
H    -2.717000000     3.496000000     4.855000000
O    -6.848000000     3.084000000     3.112000000
H    -6.060000000     3.522000000     3.435000000
H    -6.518000000     2.370000000     2.567000000
O   -10.609000000     1.906000000    -0.963000000
H   -10.854000000     1.638000000    -1.849000000
H    -9.696000000     2.182000000    -1.041000000
O    -7.465000000    -0.341000000     3.537000000
H    -7.940000000    -0.450000000     2.713000000
H    -6.590000000    -0.059000000     3.273000000
O    -3.447000000     0.567000000     4.485000000
H    -3.074000000     1.431000000     4.659000000
H    -3.942000000     0.679000000     3.674000000
O    -7.061000000     7.055000000     1.645000000
H    -6.301000000     6.500000000     1.818000000
H    -6.689000000     7.896000000     1.382000000
O    -7.840000000     5.683000000    -0.846000000
H    -7.521000000     5.177000000    -1.593000000
H    -7.089000000     5.739000000    -0.256000000
O    -8.739000000     1.327000000     5.290000000
H    -8.266000000     0.788000000     4.656000000
H    -8.754000000     2.200000000     4.898000000
O    -9.775000000     3.171000000     1.897000000
H    -9.451000000     3.968000000     1.476000000
H    -9.332000000     2.459000000     1.434000000
O    -7.580000000     3.011000000    -0.154000000
H    -6.729000000     2.587000000    -0.044000000
H    -7.471000000     3.875000000     0.244000000
O    -5.985000000     4.022000000     6.023000000
H    -5.847000000     3.610000000     5.170000000
H    -5.563000000     3.430000000     6.646000000
O    -4.163000000     3.990000000     3.087000000
H    -3.692000000     4.666000000     2.599000000
H    -4.121000000     3.217000000     2.525000000
O    -4.388000000     6.311000000     4.797000000
H    -4.245000000     5.380000000     4.627000000
H    -4.958000000     6.329000000     5.566000000
O    -0.579000000     2.246000000     2.799000000
H    -1.019000000     1.686000000     3.438000000
H    -0.750000000     1.826000000     1.956000000
O    -5.533000000     4.705000000     0.534000000
H    -5.377000000     3.763000000     0.461000000
H    -4.663000000     5.098000000     0.459000000
O    -2.837000000     5.910000000     1.342000000
H    -2.555000000     6.707000000     0.894000000
H    -2.037000000     5.563000000     1.739000000
O    -0.715000000     4.796000000     2.501000000
H    -0.777000000     5.064000000     3.418000000
H    -0.398000000     3.893000000     2.537000000
O    -4.833000000    -0.301000000     6.668000000
H    -5.535000000    -0.909000000     6.435000000
H    -4.227000000    -0.339000000     5.928000000
O    -7.101000000    -1.703000000     5.979000000
H    -7.279000000    -1.319000000     5.120000000
H    -7.849000000    -1.444000000     6.517000000
