215
-1458.22270
C    -3.666000000    -3.286000000     0.966000000
H    -2.801000000    -3.660000000     1.508000000
C    -3.466000000    -3.073000000    -0.430000000
C    -4.469000000    -2.449000000    -1.108000000
H    -4.321000000    -2.143000000    -2.140000000
C    -2.100000000    -3.401000000    -1.056000000
O    -1.594000000    -4.688000000    -0.591000000
H    -1.528000000    -2.495000000    -0.805000000
O    -2.246000000    -3.536000000    -2.485000000
C    -1.297000000    -2.843000000    -3.220000000
C    -1.635000000    -1.624000000    -3.812000000
H    -2.608000000    -1.159000000    -3.682000000
C    -0.680000000    -0.873000000    -4.477000000
O    -1.038000000     0.411000000    -4.852000000
C     0.609000000    -1.338000000    -4.523000000
C     1.635000000    -0.580000000    -5.302000000
H     2.324000000    -1.284000000    -5.773000000
C     2.382000000     0.365000000    -4.371000000
C     3.520000000    -0.049000000    -3.646000000
H     3.986000000    -0.997000000    -3.903000000
H     1.108000000    -0.009000000    -6.069000000
C     0.944000000    -2.591000000    -4.015000000
H     1.985000000    -2.871000000    -4.153000000
C    -0.015000000    -3.370000000    -3.352000000
C     0.327000000    -4.729000000    -2.832000000
H     1.240000000    -5.132000000    -3.276000000
H    -0.553000000    -5.375000000    -2.853000000
C     0.717000000    -4.608000000    -1.401000000
C     2.077000000    -4.292000000    -1.116000000
H     2.739000000    -4.036000000    -1.939000000
C    -0.202000000    -4.728000000    -0.328000000
C     0.208000000    -4.722000000     1.014000000
H    -0.439000000    -4.675000000     1.886000000
C     1.592000000    -4.545000000     1.226000000
O     1.997000000    -4.187000000     2.464000000
C     2.083000000    -2.828000000     2.793000000
C     1.434000000    -2.466000000     4.160000000
C     1.826000000    -1.262000000     4.811000000
H     2.590000000    -0.606000000     4.402000000
C     0.306000000    -3.162000000     4.630000000
H    -0.156000000    -3.902000000     3.982000000
O     3.490000000    -2.405000000     2.866000000
H     1.523000000    -2.116000000     2.167000000
C     2.502000000    -4.314000000     0.205000000
C     3.930000000    -3.974000000     0.456000000
H     4.536000000    -4.319000000    -0.385000000
H     4.198000000    -4.587000000     1.319000000
C     4.149000000    -2.460000000     0.585000000
C     4.430000000    -1.787000000    -0.557000000
H     4.444000000    -2.337000000    -1.494000000
C     4.043000000    -1.774000000     1.818000000
C     4.201000000    -0.391000000     1.797000000
H     4.054000000     0.127000000     2.742000000
C     4.570000000     0.299000000     0.643000000
O     4.520000000     1.680000000     0.608000000
C     3.402000000     2.278000000    -0.090000000
C     2.785000000     3.398000000     0.747000000
C     2.752000000     3.339000000     2.146000000
H     2.953000000     2.400000000     2.655000000
C     2.144000000     4.482000000     0.171000000
H     2.069000000     4.621000000    -0.905000000
O     3.887000000     2.729000000    -1.298000000
H     2.573000000     1.559000000    -0.168000000
C     4.771000000    -0.436000000    -0.527000000
C     5.159000000     0.298000000    -1.831000000
H     5.711000000    -0.373000000    -2.493000000
H     5.830000000     1.155000000    -1.741000000
C     4.031000000     0.782000000    -2.700000000
C     3.532000000     2.081000000    -2.429000000
C     2.497000000     2.561000000    -3.276000000
H     2.177000000     3.599000000    -3.265000000
C     1.897000000     1.681000000    -4.200000000
O     0.740000000     2.040000000    -4.755000000
C    -0.494000000     1.464000000    -4.107000000
H    -0.155000000     1.025000000    -3.157000000
C    -1.537000000     2.516000000    -3.751000000
C    -2.745000000     2.061000000    -3.118000000
H    -2.802000000     1.018000000    -2.817000000
C    -1.337000000     3.884000000    -3.829000000
H    -0.409000000     4.301000000    -4.211000000
C    -2.294000000     4.812000000    -3.453000000
O    -2.010000000     6.144000000    -3.419000000
C    -3.473000000     4.328000000    -2.938000000
H    -4.163000000     5.043000000    -2.497000000
C    -3.648000000     3.000000000    -2.710000000
O    -4.738000000     2.677000000    -1.997000000
C    -5.663000000     1.693000000    -2.348000000
C    -5.862000000     0.548000000    -1.540000000
H    -5.389000000     0.480000000    -0.564000000
C    -6.329000000     1.796000000    -3.604000000
H    -6.149000000     2.730000000    -4.130000000
C    -7.239000000     0.809000000    -3.998000000
H    -7.804000000     0.894000000    -4.923000000
C    -7.419000000    -0.314000000    -3.136000000
H    -8.150000000    -1.081000000    -3.379000000
C    -6.677000000    -0.470000000    -1.945000000
O    -6.793000000    -1.586000000    -1.206000000
C    -5.678000000    -2.031000000    -0.457000000
C    -5.836000000    -2.271000000     0.874000000
H    -6.732000000    -1.967000000     1.410000000
C    -4.849000000    -2.867000000     1.623000000
O    -4.961000000    -2.965000000     2.952000000
C    -4.107000000    -3.803000000     3.709000000
C    -3.105000000    -3.263000000     4.530000000
H    -2.913000000    -2.193000000     4.524000000
C    -4.393000000    -5.148000000     3.592000000
H    -5.220000000    -5.534000000     3.003000000
C    -3.648000000    -5.969000000     4.461000000
H    -4.006000000    -6.982000000     4.625000000
C    -2.655000000    -5.448000000     5.324000000
H    -2.157000000    -6.100000000     6.037000000
C    -2.317000000    -4.107000000     5.304000000
O    -1.406000000    -3.569000000     6.208000000
C    -0.335000000    -2.771000000     5.801000000
C     0.055000000    -1.597000000     6.410000000
H    -0.479000000    -1.272000000     7.299000000
C     1.126000000    -0.839000000     5.939000000
O     1.438000000     0.363000000     6.611000000
C     2.353000000     1.288000000     6.146000000
C     1.841000000     2.429000000     5.592000000
H     0.787000000     2.436000000     5.327000000
C     3.758000000     1.107000000     6.374000000
H     4.180000000     0.228000000     6.856000000
C     4.636000000     2.159000000     5.920000000
H     5.681000000     2.251000000     6.206000000
C     4.123000000     3.329000000     5.341000000
H     4.799000000     4.084000000     4.948000000
C     2.737000000     3.375000000     5.092000000
O     2.218000000     4.436000000     4.361000000
C     2.257000000     4.406000000     2.952000000
C     1.516000000     5.352000000     2.273000000
H     0.977000000     6.092000000     2.859000000
C     1.402000000     5.360000000     0.916000000
O     0.693000000     6.445000000     0.392000000
C     0.560000000     6.625000000    -0.931000000
C     1.591000000     7.269000000    -1.677000000
H     2.420000000     7.615000000    -1.065000000
C     1.350000000     7.547000000    -2.987000000
H     2.081000000     8.186000000    -3.475000000
C     0.164000000     7.216000000    -3.643000000
H    -0.080000000     7.500000000    -4.663000000
C    -0.842000000     6.562000000    -2.846000000
C    -0.642000000     6.301000000    -1.495000000
H    -1.421000000     5.874000000    -0.869000000
C    -2.251000000     0.052000000     1.381000000
H    -2.703000000    -0.421000000     2.249000000
C    -1.076000000    -0.472000000     0.786000000
H    -0.698000000    -1.431000000     1.132000000
C    -0.281000000     0.227000000    -0.089000000
H     0.571000000    -0.130000000    -0.514000000
C    -0.734000000     1.517000000    -0.465000000
H    -0.110000000     2.042000000    -1.183000000
C    -1.980000000     1.917000000    -0.049000000
H    -2.367000000     2.893000000    -0.332000000
C    -2.718000000     1.372000000     0.970000000
C    -3.906000000     2.104000000     1.564000000
O    -4.009000000     3.311000000     1.500000000
O    -4.722000000     1.495000000     2.210000000
O    -9.454000000     2.583000000     3.335000000
H   -10.383000000     2.752000000     3.176000000
H    -9.119000000     2.274000000     2.493000000
O    -6.675000000     5.349000000     3.508000000
H    -6.453000000     4.440000000     3.712000000
H    -5.848000000     5.823000000     3.599000000
O    -4.759000000     0.396000000     4.573000000
H    -3.845000000     0.219000000     4.796000000
H    -4.723000000     0.752000000     3.685000000
O    -3.296000000     3.840000000     4.403000000
H    -2.487000000     4.233000000     4.729000000
H    -3.125000000     3.671000000     3.477000000
O    -1.778000000     0.646000000     5.243000000
H    -1.800000000     1.397000000     5.836000000
H    -1.053000000     0.109000000     5.564000000
O    -7.682000000     1.990000000     1.207000000
H    -7.742000000     2.922000000     1.000000000
H    -6.799000000     1.878000000     1.557000000
O    -5.804000000     2.888000000     4.002000000
H    -4.971000000     3.158000000     4.389000000
H    -5.557000000     2.286000000     3.300000000
O    -6.655000000     1.344000000     7.298000000
H    -7.492000000     1.178000000     6.863000000
H    -6.008000000     1.309000000     6.593000000
O    -7.839000000     0.563000000     4.840000000
H    -6.918000000     0.670000000     4.600000000
H    -8.294000000     1.253000000     4.358000000
O    -1.987000000     5.364000000     2.073000000
H    -1.120000000     4.971000000     2.172000000
H    -2.557000000     4.631000000     1.841000000
O    -8.074000000     5.000000000     1.184000000
H    -8.975000000     5.297000000     1.315000000
H    -7.628000000     5.221000000     2.001000000
O    -6.839000000     5.441000000    -2.143000000
H    -7.164000000     4.541000000    -2.146000000
H    -6.182000000     5.457000000    -1.448000000
O    -0.568000000     2.535000000     3.064000000
H    -0.764000000     2.075000000     2.248000000
H    -1.023000000     2.031000000     3.738000000
O    -4.087000000     6.733000000     3.489000000
H    -3.778000000     7.145000000     4.296000000
H    -3.289000000     6.440000000     3.049000000
O    -5.515000000     4.992000000     0.132000000
H    -6.102000000     5.108000000     0.879000000
H    -4.776000000     4.495000000     0.484000000
O    -0.623000000     4.487000000     5.399000000
H    -0.159000000     4.053000000     4.683000000
H    -0.182000000     5.331000000     5.494000000
O    -7.114000000    -2.095000000     5.436000000
H    -6.565000000    -2.201000000     4.658000000
H    -7.454000000    -1.203000000     5.369000000
O    -5.718000000     7.834000000    -0.608000000
H    -5.727000000     6.877000000    -0.577000000
H    -4.891000000     8.079000000    -0.192000000
O    -8.869000000    -0.453000000     1.702000000
H    -8.502000000     0.426000000     1.613000000
H    -9.224000000    -0.654000000     0.836000000
