215
-1489.47916
C    -3.655000000    -4.278000000    -0.161000000
H    -2.922000000    -5.044000000     0.077000000
C    -3.456000000    -3.542000000    -1.280000000
C    -4.506000000    -2.614000000    -1.647000000
H    -4.314000000    -1.844000000    -2.389000000
C    -2.185000000    -3.554000000    -1.999000000
O    -1.470000000    -4.737000000    -1.851000000
H    -1.525000000    -2.808000000    -1.533000000
O    -2.314000000    -3.136000000    -3.311000000
C    -1.384000000    -2.214000000    -3.784000000
C    -1.722000000    -0.884000000    -3.682000000
H    -2.695000000    -0.653000000    -3.255000000
C    -0.834000000     0.059000000    -4.162000000
O    -1.273000000     1.371000000    -4.164000000
C     0.416000000    -0.269000000    -4.764000000
C     1.383000000     0.751000000    -5.218000000
H     2.121000000     0.321000000    -5.899000000
C     2.054000000     1.414000000    -4.038000000
C     3.311000000     0.934000000    -3.592000000
H     3.814000000     0.151000000    -4.153000000
H     0.879000000     1.550000000    -5.765000000
C     0.800000000    -1.592000000    -4.645000000
H     1.844000000    -1.772000000    -4.885000000
C    -0.069000000    -2.584000000    -4.196000000
C     0.432000000    -4.012000000    -4.082000000
H     1.239000000    -4.153000000    -4.803000000
H    -0.334000000    -4.774000000    -4.239000000
C     0.851000000    -4.197000000    -2.605000000
C     2.196000000    -3.951000000    -2.255000000
H     2.887000000    -3.608000000    -3.021000000
C    -0.097000000    -4.496000000    -1.621000000
C     0.245000000    -4.477000000    -0.272000000
H    -0.511000000    -4.746000000     0.462000000
C     1.555000000    -4.184000000     0.082000000
O     1.818000000    -4.184000000     1.386000000
C     2.003000000    -2.838000000     1.858000000
C     1.263000000    -2.592000000     3.142000000
C     1.728000000    -1.644000000     4.086000000
H     2.784000000    -1.387000000     4.083000000
C    -0.033000000    -3.169000000     3.350000000
H    -0.512000000    -3.812000000     2.617000000
O     3.382000000    -2.608000000     2.076000000
H     1.622000000    -2.147000000     1.091000000
C     2.562000000    -4.053000000    -0.903000000
C     3.966000000    -3.757000000    -0.544000000
H     4.604000000    -4.056000000    -1.379000000
H     4.358000000    -4.426000000     0.225000000
C     4.289000000    -2.308000000    -0.220000000
C     4.617000000    -1.417000000    -1.205000000
H     4.716000000    -1.791000000    -2.221000000
C     4.000000000    -1.818000000     1.109000000
C     4.212000000    -0.493000000     1.404000000
H     4.110000000    -0.191000000     2.443000000
C     4.691000000     0.335000000     0.411000000
O     4.815000000     1.679000000     0.790000000
C     3.701000000     2.484000000     0.483000000
C     3.293000000     3.484000000     1.603000000
C     3.616000000     3.161000000     2.887000000
H     4.184000000     2.240000000     2.983000000
C     2.561000000     4.546000000     1.273000000
H     2.300000000     4.659000000     0.224000000
O     3.941000000     3.198000000    -0.814000000
H     2.759000000     1.930000000     0.355000000
C     4.787000000    -0.073000000    -0.928000000
C     5.186000000     0.891000000    -1.975000000
H     5.848000000     0.475000000    -2.737000000
H     5.867000000     1.533000000    -1.412000000
C     3.920000000     1.483000000    -2.529000000
C     3.354000000     2.559000000    -1.909000000
C     2.163000000     3.119000000    -2.372000000
H     1.825000000     4.070000000    -1.968000000
C     1.495000000     2.568000000    -3.423000000
O     0.228000000     3.053000000    -3.759000000
C    -0.819000000     2.203000000    -3.188000000
H    -0.429000000     1.588000000    -2.363000000
C    -1.915000000     2.976000000    -2.613000000
C    -3.219000000     2.521000000    -2.592000000
H    -3.557000000     1.651000000    -3.149000000
C    -1.654000000     4.182000000    -1.886000000
H    -0.626000000     4.480000000    -1.693000000
C    -2.715000000     4.979000000    -1.344000000
O    -2.425000000     6.252000000    -0.823000000
C    -4.026000000     4.546000000    -1.489000000
H    -4.851000000     5.088000000    -1.034000000
C    -4.300000000     3.318000000    -2.088000000
O    -5.616000000     2.911000000    -2.152000000
C    -6.034000000     1.646000000    -2.588000000
C    -6.096000000     0.523000000    -1.710000000
H    -5.680000000     0.577000000    -0.707000000
C    -6.738000000     1.603000000    -3.801000000
H    -6.739000000     2.350000000    -4.591000000
C    -7.318000000     0.336000000    -4.146000000
H    -7.925000000     0.238000000    -5.043000000
C    -7.311000000    -0.771000000    -3.368000000
H    -7.845000000    -1.610000000    -3.806000000
C    -6.720000000    -0.677000000    -2.130000000
O    -6.861000000    -1.747000000    -1.252000000
C    -5.719000000    -2.566000000    -0.932000000
C    -5.857000000    -3.394000000     0.228000000
H    -6.777000000    -3.475000000     0.800000000
C    -4.810000000    -4.233000000     0.578000000
O    -5.026000000    -5.153000000     1.614000000
C    -4.170000000    -5.303000000     2.628000000
C    -3.459000000    -4.187000000     3.135000000
H    -3.686000000    -3.198000000     2.746000000
C    -4.022000000    -6.570000000     3.226000000
H    -4.610000000    -7.406000000     2.857000000
C    -3.270000000    -6.653000000     4.378000000
H    -3.239000000    -7.518000000     5.035000000
C    -2.601000000    -5.512000000     4.890000000
H    -2.102000000    -5.573000000     5.854000000
C    -2.651000000    -4.297000000     4.250000000
O    -2.075000000    -3.111000000     4.700000000
C    -0.730000000    -2.735000000     4.470000000
C    -0.248000000    -1.899000000     5.455000000
H    -0.870000000    -1.605000000     6.296000000
C     1.051000000    -1.409000000     5.317000000
O     1.561000000    -0.568000000     6.320000000
C     2.683000000     0.257000000     6.086000000
C     2.566000000     1.553000000     5.634000000
H     1.619000000     2.000000000     5.343000000
C     3.915000000    -0.276000000     6.570000000
H     4.065000000    -1.304000000     6.891000000
C     4.979000000     0.595000000     6.461000000
H     5.962000000     0.232000000     6.751000000
C     4.847000000     1.929000000     6.144000000
H     5.713000000     2.586000000     6.153000000
C     3.680000000     2.461000000     5.760000000
O     3.665000000     3.732000000     5.227000000
C     3.376000000     4.045000000     3.912000000
C     2.713000000     5.264000000     3.578000000
H     2.527000000     5.982000000     4.373000000
C     2.262000000     5.444000000     2.247000000
O     1.488000000     6.554000000     2.034000000
C     0.866000000     6.862000000     0.793000000
C     1.330000000     7.850000000     0.013000000
H     2.299000000     8.320000000     0.164000000
C     0.624000000     8.269000000    -1.140000000
H     0.971000000     9.149000000    -1.676000000
C    -0.636000000     7.809000000    -1.404000000
H    -1.285000000     8.213000000    -2.177000000
C    -1.114000000     6.725000000    -0.619000000
C    -0.363000000     6.278000000     0.477000000
H    -0.776000000     5.585000000     1.205000000
C    -2.080000000    -0.109000000     1.103000000
H    -2.960000000    -0.418000000     1.660000000
C    -1.345000000    -1.120000000     0.498000000
H    -1.597000000    -2.177000000     0.496000000
C    -0.210000000    -0.753000000    -0.169000000
H     0.358000000    -1.571000000    -0.635000000
C     0.245000000     0.540000000    -0.170000000
H     1.151000000     0.749000000    -0.733000000
C    -0.463000000     1.512000000     0.381000000
H    -0.054000000     2.518000000     0.423000000
C    -1.709000000     1.237000000     1.015000000
C    -2.490000000     2.296000000     1.734000000
O    -2.048000000     3.427000000     1.841000000
O    -3.645000000     2.056000000     2.065000000
O    -8.594000000     0.749000000     2.943000000
H    -8.064000000     1.537000000     3.060000000
H    -9.016000000     0.868000000     2.092000000
O    -3.146000000     6.976000000     4.595000000
H    -3.263000000     6.430000000     3.818000000
H    -2.198000000     7.027000000     4.712000000
O    -5.233000000     0.867000000     3.725000000
H    -5.945000000     1.479000000     3.908000000
H    -4.582000000     1.389000000     3.258000000
O    -3.686000000    -0.088000000     5.902000000
H    -4.217000000     0.191000000     5.157000000
H    -4.295000000    -0.093000000     6.641000000
O     0.356000000     3.977000000     6.461000000
H     0.066000000     4.222000000     5.582000000
H    -0.424000000     3.609000000     6.877000000
O    -1.532000000     0.980000000     4.783000000
H    -1.193000000     1.747000000     5.246000000
H    -2.157000000     0.589000000     5.394000000
O    -6.045000000     2.997000000     1.240000000
H    -6.157000000     2.869000000     0.298000000
H    -5.114000000     2.835000000     1.395000000
O    -5.977000000     6.292000000     4.853000000
H    -5.744000000     6.982000000     5.475000000
H    -5.235000000     5.688000000     4.876000000
O    -4.225000000     3.769000000     4.336000000
H    -3.759000000     3.138000000     4.884000000
H    -3.798000000     3.706000000     3.482000000
O    -7.395000000     6.982000000     2.658000000
H    -6.735000000     6.730000000     3.303000000
H    -7.990000000     7.560000000     3.136000000
O    -6.557000000     7.340000000    -0.404000000
H    -6.667000000     7.036000000     0.497000000
H    -7.450000000     7.415000000    -0.742000000
O    -2.369000000     3.006000000     7.048000000
H    -2.674000000     2.464000000     7.776000000
H    -2.934000000     3.777000000     7.070000000
O    -0.130000000     3.907000000     3.695000000
H     0.424000000     3.134000000     3.590000000
H    -0.922000000     3.704000000     3.198000000
O    -7.028000000     3.120000000     3.656000000
H    -6.895000000     3.179000000     2.710000000
H    -6.235000000     3.501000000     4.033000000
O     1.067000000     1.537000000     2.942000000
H     0.574000000     1.228000000     2.182000000
H     1.109000000     0.779000000     3.525000000
O    -0.332000000     7.006000000     4.227000000
H     0.306000000     7.273000000     4.888000000
H     0.076000000     6.260000000     3.788000000
O    -3.400000000     5.750000000     2.146000000
H    -4.049000000     5.650000000     1.450000000
H    -2.752000000     5.069000000     1.968000000
O    -6.693000000    -1.441000000     2.802000000
H    -5.993000000    -0.823000000     3.012000000
H    -7.289000000    -0.946000000     2.239000000
O    -3.250000000     8.725000000     1.344000000
H    -3.247000000     7.857000000     1.746000000
H    -2.379000000     9.078000000     1.529000000
