215
-1461.93322
C    -3.418000000    -4.090000000     0.149000000
H    -2.572000000    -4.721000000     0.411000000
C    -3.375000000    -3.637000000    -1.199000000
C    -4.477000000    -2.928000000    -1.645000000
H    -4.511000000    -2.646000000    -2.694000000
C    -2.127000000    -3.642000000    -2.022000000
O    -1.182000000    -4.690000000    -1.702000000
H    -1.553000000    -2.735000000    -1.781000000
O    -2.215000000    -3.551000000    -3.489000000
C    -1.373000000    -2.581000000    -4.049000000
C    -1.834000000    -1.272000000    -4.160000000
H    -2.887000000    -1.199000000    -3.902000000
C    -1.014000000    -0.308000000    -4.669000000
O    -1.504000000     0.989000000    -4.632000000
C     0.358000000    -0.600000000    -5.002000000
C     1.271000000     0.528000000    -5.279000000
H     2.100000000     0.214000000    -5.917000000
C     1.968000000     1.354000000    -4.109000000
C     3.236000000     0.990000000    -3.643000000
H     3.762000000     0.179000000    -4.141000000
H     0.713000000     1.306000000    -5.804000000
C     0.808000000    -1.946000000    -4.815000000
H     1.818000000    -2.214000000    -5.116000000
C    -0.074000000    -2.956000000    -4.325000000
C     0.532000000    -4.244000000    -3.903000000
H     1.320000000    -4.503000000    -4.612000000
H    -0.152000000    -5.093000000    -3.964000000
C     1.055000000    -4.241000000    -2.479000000
C     2.359000000    -3.950000000    -2.102000000
H     3.021000000    -3.565000000    -2.873000000
C     0.154000000    -4.445000000    -1.472000000
C     0.448000000    -4.284000000    -0.119000000
H    -0.322000000    -4.406000000     0.638000000
C     1.735000000    -3.949000000     0.282000000
O     2.043000000    -3.667000000     1.558000000
C     2.247000000    -2.332000000     2.054000000
C     1.662000000    -2.198000000     3.456000000
C     2.267000000    -1.490000000     4.545000000
H     3.309000000    -1.239000000     4.361000000
C     0.415000000    -2.846000000     3.656000000
H    -0.135000000    -3.441000000     2.931000000
O     3.643000000    -2.154000000     2.053000000
H     1.707000000    -1.678000000     1.353000000
C     2.652000000    -3.675000000    -0.733000000
C     4.132000000    -3.370000000    -0.460000000
H     4.701000000    -3.726000000    -1.321000000
H     4.298000000    -4.062000000     0.369000000
C     4.535000000    -1.919000000    -0.089000000
C     4.815000000    -1.063000000    -1.143000000
H     4.695000000    -1.397000000    -2.170000000
C     4.277000000    -1.345000000     1.132000000
C     4.328000000    -0.004000000     1.387000000
H     4.076000000     0.408000000     2.361000000
C     4.674000000     0.841000000     0.391000000
O     4.601000000     2.196000000     0.712000000
C     3.309000000     2.881000000     0.317000000
C     2.804000000     3.779000000     1.473000000
C     2.953000000     3.312000000     2.779000000
H     3.479000000     2.368000000     2.889000000
C     2.004000000     4.914000000     1.250000000
H     1.753000000     5.170000000     0.224000000
O     3.489000000     3.547000000    -0.929000000
H     2.572000000     2.078000000     0.171000000
C     4.871000000     0.339000000    -0.889000000
C     5.180000000     1.232000000    -2.044000000
H     5.853000000     0.700000000    -2.719000000
H     5.895000000     2.019000000    -1.795000000
C     3.886000000     1.702000000    -2.613000000
C     3.167000000     2.804000000    -2.117000000
C     1.911000000     3.219000000    -2.600000000
H     1.428000000     4.101000000    -2.189000000
C     1.248000000     2.400000000    -3.499000000
O    -0.030000000     2.640000000    -3.756000000
C    -1.079000000     1.734000000    -3.419000000
H    -0.649000000     1.082000000    -2.644000000
C    -2.203000000     2.607000000    -2.852000000
C    -3.501000000     2.085000000    -2.813000000
H    -3.744000000     1.189000000    -3.379000000
C    -1.969000000     3.869000000    -2.240000000
H    -0.943000000     4.227000000    -2.213000000
C    -2.988000000     4.604000000    -1.653000000
O    -2.746000000     5.812000000    -0.947000000
C    -4.316000000     4.081000000    -1.673000000
H    -5.106000000     4.635000000    -1.172000000
C    -4.504000000     2.822000000    -2.194000000
O    -5.814000000     2.415000000    -2.166000000
C    -6.311000000     1.197000000    -2.544000000
C    -6.161000000     0.042000000    -1.824000000
H    -5.639000000     0.066000000    -0.871000000
C    -6.985000000     1.191000000    -3.745000000
H    -7.018000000     1.998000000    -4.473000000
C    -7.695000000     0.080000000    -4.180000000
H    -8.247000000     0.055000000    -5.117000000
C    -7.536000000    -1.108000000    -3.391000000
H    -8.193000000    -1.951000000    -3.588000000
C    -6.773000000    -1.152000000    -2.186000000
O    -6.779000000    -2.241000000    -1.369000000
C    -5.630000000    -2.743000000    -0.833000000
C    -5.620000000    -3.287000000     0.477000000
H    -6.520000000    -3.237000000     1.084000000
C    -4.536000000    -4.000000000     0.917000000
O    -4.670000000    -4.682000000     2.093000000
C    -3.649000000    -5.016000000     3.008000000
C    -2.806000000    -4.120000000     3.603000000
H    -2.847000000    -3.042000000     3.470000000
C    -3.407000000    -6.387000000     3.143000000
H    -4.095000000    -6.991000000     2.556000000
C    -2.367000000    -6.840000000     3.868000000
H    -2.212000000    -7.916000000     3.895000000
C    -1.539000000    -5.929000000     4.580000000
H    -0.716000000    -6.281000000     5.198000000
C    -1.732000000    -4.554000000     4.376000000
O    -1.116000000    -3.685000000     5.186000000
C    -0.053000000    -2.868000000     4.939000000
C     0.546000000    -2.121000000     5.929000000
H     0.165000000    -2.283000000     6.935000000
C     1.682000000    -1.429000000     5.787000000
O     2.273000000    -0.681000000     6.797000000
C     3.040000000     0.444000000     6.540000000
C     2.484000000     1.618000000     5.929000000
H     1.424000000     1.720000000     5.713000000
C     4.417000000     0.262000000     6.828000000
H     4.768000000    -0.629000000     7.343000000
C     5.219000000     1.359000000     6.393000000
H     6.265000000     1.531000000     6.636000000
C     4.662000000     2.500000000     5.783000000
H     5.287000000     3.329000000     5.460000000
C     3.306000000     2.646000000     5.541000000
O     2.760000000     3.859000000     5.179000000
C     2.565000000     4.128000000     3.845000000
C     1.876000000     5.306000000     3.568000000
H     1.647000000     5.891000000     4.455000000
C     1.523000000     5.668000000     2.304000000
O     0.883000000     6.810000000     2.088000000
C     0.242000000     6.998000000     0.904000000
C     0.656000000     7.990000000     0.104000000
H     1.407000000     8.705000000     0.430000000
C     0.110000000     8.239000000    -1.129000000
H     0.491000000     9.063000000    -1.728000000
C    -0.998000000     7.447000000    -1.523000000
H    -1.521000000     7.654000000    -2.453000000
C    -1.501000000     6.468000000    -0.668000000
C    -0.845000000     6.162000000     0.571000000
H    -1.151000000     5.403000000     1.286000000
C    -3.312000000     0.566000000     0.870000000
H    -4.368000000     0.318000000     0.952000000
C    -2.427000000    -0.426000000     0.371000000
H    -2.809000000    -1.405000000     0.093000000
C    -1.056000000    -0.134000000     0.186000000
H    -0.364000000    -0.798000000    -0.278000000
C    -0.599000000     1.133000000     0.364000000
H     0.392000000     1.435000000     0.034000000
C    -1.443000000     2.104000000     0.941000000
H    -1.064000000     3.104000000     1.134000000
C    -2.869000000     1.863000000     1.192000000
C    -3.849000000     2.978000000     1.514000000
O    -3.421000000     3.964000000     2.121000000
O    -5.065000000     2.680000000     1.592000000
O    -8.876000000     1.573000000     2.904000000
H    -8.568000000     0.841000000     2.370000000
H    -8.197000000     1.687000000     3.570000000
O    -4.568000000     6.656000000     4.493000000
H    -4.466000000     6.575000000     3.545000000
H    -3.673000000     6.709000000     4.827000000
O    -4.960000000     0.773000000     3.468000000
H    -4.064000000     0.637000000     3.776000000
H    -4.872000000     1.392000000     2.742000000
O    -2.771000000     0.454000000     5.039000000
H    -2.877000000     1.137000000     5.701000000
H    -3.315000000    -0.269000000     5.352000000
O    -6.368000000    -1.938000000     3.434000000
H    -5.591000000    -2.239000000     3.905000000
H    -6.367000000    -0.988000000     3.554000000
O    -7.482000000     1.760000000     0.183000000
H    -7.618000000     2.593000000    -0.269000000
H    -6.628000000     1.853000000     0.604000000
O    -7.856000000     6.399000000     3.778000000
H    -7.208000000     5.713000000     3.613000000
H    -8.027000000     6.346000000     4.718000000
O    -5.805000000     4.313000000     3.770000000
H    -5.506000000     5.123000000     4.184000000
H    -5.007000000     3.914000000     3.422000000
O    -6.055000000     7.150000000    -0.358000000
H    -6.667000000     7.858000000    -0.156000000
H    -6.511000000     6.354000000    -0.088000000
O    -3.627000000     2.495000000     6.914000000
H    -4.568000000     2.605000000     7.051000000
H    -3.260000000     3.367000000     7.060000000
O    -1.449000000     4.544000000     3.715000000
H    -0.950000000     3.773000000     3.983000000
H    -2.211000000     4.189000000     3.257000000
O    -7.069000000     1.859000000     4.905000000
H    -6.525000000     1.105000000     4.676000000
H    -6.585000000     2.614000000     4.570000000
O    -6.757000000     4.881000000     0.912000000
H    -6.241000000     4.219000000     1.374000000
H    -7.642000000     4.782000000     1.263000000
O    -0.674000000     2.059000000     4.337000000
H    -0.283000000     1.642000000     3.568000000
H    -1.391000000     1.476000000     4.587000000
O    -1.845000000     6.911000000     4.806000000
H    -1.542000000     7.614000000     4.231000000
H    -1.583000000     6.106000000     4.359000000
O    -4.244000000     6.685000000     1.664000000
H    -4.740000000     6.738000000     0.847000000
H    -3.841000000     5.817000000     1.643000000
O    -8.364000000    -0.641000000     0.896000000
H    -7.694000000    -1.313000000     0.775000000
H    -8.049000000     0.106000000     0.387000000
O    -3.088000000     9.072000000     1.091000000
H    -3.272000000     8.154000000     1.287000000
H    -3.177000000     9.136000000     0.140000000
O    -9.190000000     3.820000000     1.610000000
H    -9.086000000     2.963000000     2.024000000
H    -9.675000000     3.639000000     0.805000000
