215
-1468.17209
C    -2.910000000    -4.029000000     0.990000000
H    -2.017000000    -4.479000000     1.417000000
C    -2.974000000    -3.471000000    -0.280000000
C    -4.143000000    -2.757000000    -0.711000000
H    -4.038000000    -2.160000000    -1.613000000
C    -1.748000000    -3.536000000    -1.157000000
O    -0.796000000    -4.612000000    -0.770000000
H    -1.221000000    -2.576000000    -1.052000000
O    -2.170000000    -3.622000000    -2.477000000
C    -1.510000000    -2.818000000    -3.375000000
C    -2.093000000    -1.607000000    -3.776000000
H    -3.104000000    -1.363000000    -3.461000000
C    -1.342000000    -0.709000000    -4.532000000
O    -1.909000000     0.468000000    -4.738000000
C    -0.021000000    -0.939000000    -4.794000000
C     0.797000000     0.178000000    -5.568000000
H     1.504000000    -0.258000000    -6.276000000
C     1.479000000     1.112000000    -4.586000000
C     2.731000000     0.814000000    -4.000000000
H     3.349000000     0.015000000    -4.400000000
H     0.082000000     0.753000000    -6.160000000
C     0.631000000    -2.084000000    -4.327000000
H     1.630000000    -2.244000000    -4.725000000
C    -0.117000000    -3.091000000    -3.682000000
C     0.559000000    -4.373000000    -3.275000000
H     1.315000000    -4.560000000    -4.041000000
H    -0.083000000    -5.257000000    -3.293000000
C     1.316000000    -4.337000000    -1.972000000
C     2.666000000    -3.923000000    -1.837000000
H     3.237000000    -3.664000000    -2.725000000
C     0.584000000    -4.484000000    -0.804000000
C     1.127000000    -4.291000000     0.436000000
H     0.508000000    -4.323000000     1.329000000
C     2.465000000    -3.966000000     0.591000000
O     3.036000000    -3.818000000     1.833000000
C     3.212000000    -2.477000000     2.358000000
C     2.690000000    -2.259000000     3.773000000
C     3.312000000    -1.321000000     4.613000000
H     4.291000000    -0.944000000     4.331000000
C     1.430000000    -2.818000000     4.078000000
H     0.838000000    -3.387000000     3.365000000
O     4.498000000    -1.890000000     2.093000000
H     2.549000000    -1.930000000     1.670000000
C     3.284000000    -3.853000000    -0.552000000
C     4.754000000    -3.394000000    -0.465000000
H     5.371000000    -3.539000000    -1.355000000
H     5.230000000    -3.952000000     0.344000000
C     4.810000000    -1.849000000    -0.311000000
C     4.695000000    -1.026000000    -1.425000000
H     4.677000000    -1.445000000    -2.428000000
C     4.663000000    -1.216000000     0.948000000
C     4.471000000     0.150000000     1.053000000
H     4.399000000     0.556000000     2.059000000
C     4.387000000     0.895000000    -0.054000000
O     4.187000000     2.259000000     0.153000000
C     2.936000000     2.805000000    -0.181000000
C     2.410000000     3.723000000     0.866000000
C     2.634000000     3.484000000     2.225000000
H     3.207000000     2.619000000     2.548000000
C     1.592000000     4.771000000     0.442000000
H     1.483000000     4.985000000    -0.619000000
O     3.011000000     3.424000000    -1.495000000
H     2.225000000     1.968000000    -0.250000000
C     4.531000000     0.390000000    -1.309000000
C     4.655000000     1.281000000    -2.448000000
H     5.264000000     0.828000000    -3.233000000
H     5.177000000     2.226000000    -2.283000000
C     3.299000000     1.576000000    -3.005000000
C     2.537000000     2.649000000    -2.498000000
C     1.287000000     2.879000000    -3.018000000
H     0.643000000     3.679000000    -2.661000000
C     0.700000000     2.106000000    -3.944000000
O    -0.651000000     2.413000000    -4.204000000
C    -1.633000000     1.493000000    -3.766000000
H    -1.151000000     1.030000000    -2.892000000
C    -2.861000000     2.313000000    -3.262000000
C    -4.192000000     1.727000000    -3.449000000
H    -4.387000000     0.757000000    -3.901000000
C    -2.728000000     3.561000000    -2.639000000
H    -1.683000000     3.849000000    -2.564000000
C    -3.814000000     4.317000000    -2.195000000
O    -3.621000000     5.573000000    -1.635000000
C    -5.101000000     3.764000000    -2.361000000
H    -5.954000000     4.303000000    -1.957000000
C    -5.269000000     2.449000000    -2.912000000
O    -6.509000000     1.983000000    -2.949000000
C    -6.832000000     0.713000000    -2.603000000
C    -6.385000000     0.103000000    -1.420000000
H    -5.922000000     0.691000000    -0.631000000
C    -7.604000000     0.006000000    -3.549000000
H    -7.998000000     0.567000000    -4.393000000
C    -7.955000000    -1.286000000    -3.263000000
H    -8.674000000    -1.876000000    -3.826000000
C    -7.386000000    -1.909000000    -2.129000000
H    -7.633000000    -2.941000000    -1.894000000
C    -6.625000000    -1.251000000    -1.215000000
O    -6.331000000    -1.840000000    -0.024000000
C    -5.179000000    -2.618000000     0.192000000
C    -5.107000000    -3.289000000     1.412000000
H    -5.978000000    -3.330000000     2.060000000
C    -3.951000000    -3.963000000     1.893000000
O    -3.924000000    -4.626000000     3.076000000
C    -2.722000000    -4.907000000     3.743000000
C    -2.075000000    -3.846000000     4.408000000
H    -2.503000000    -2.847000000     4.410000000
C    -2.269000000    -6.222000000     3.830000000
H    -2.796000000    -6.987000000     3.266000000
C    -1.099000000    -6.489000000     4.551000000
H    -0.708000000    -7.500000000     4.631000000
C    -0.490000000    -5.400000000     5.168000000
H     0.322000000    -5.582000000     5.867000000
C    -0.923000000    -4.069000000     5.056000000
O    -0.355000000    -3.090000000     5.710000000
C     0.861000000    -2.497000000     5.327000000
C     1.508000000    -1.627000000     6.194000000
H     0.937000000    -1.481000000     7.108000000
C     2.686000000    -0.984000000     5.780000000
O     3.294000000    -0.089000000     6.670000000
C     3.624000000     1.193000000     6.206000000
C     2.682000000     1.920000000     5.509000000
H     1.642000000     1.637000000     5.366000000
C     4.936000000     1.655000000     6.348000000
H     5.612000000     1.065000000     6.962000000
C     5.193000000     2.965000000     5.891000000
H     6.168000000     3.418000000     6.056000000
C     4.253000000     3.792000000     5.318000000
H     4.571000000     4.809000000     5.105000000
C     2.915000000     3.276000000     5.043000000
O     1.973000000     4.116000000     4.521000000
C     1.904000000     4.294000000     3.153000000
C     1.223000000     5.437000000     2.695000000
H     0.784000000     6.059000000     3.470000000
C     1.075000000     5.639000000     1.352000000
O     0.290000000     6.707000000     1.009000000
C    -0.474000000     6.732000000    -0.150000000
C    -0.040000000     7.709000000    -1.071000000
H     0.946000000     8.123000000    -0.879000000
C    -0.828000000     7.904000000    -2.188000000
H    -0.497000000     8.504000000    -3.031000000
C    -1.977000000     7.108000000    -2.397000000
H    -2.627000000     7.354000000    -3.232000000
C    -2.409000000     6.226000000    -1.452000000
C    -1.703000000     6.029000000    -0.308000000
H    -1.994000000     5.325000000     0.468000000
C    -2.234000000    -0.633000000     1.762000000
H    -2.636000000    -1.244000000     2.566000000
C    -0.969000000    -0.909000000     1.329000000
H    -0.395000000    -1.751000000     1.706000000
C    -0.352000000    -0.056000000     0.420000000
H     0.659000000    -0.173000000     0.232000000
C    -1.049000000     1.082000000    -0.038000000
H    -0.551000000     1.775000000    -0.712000000
C    -2.325000000     1.327000000     0.395000000
H    -2.850000000     2.250000000     0.163000000
C    -2.974000000     0.435000000     1.252000000
C    -4.366000000     0.680000000     1.796000000
O    -4.968000000     1.697000000     1.403000000
O    -4.871000000    -0.004000000     2.703000000
O    -9.665000000     0.139000000     4.002000000
H   -10.347000000     0.571000000     3.489000000
H    -8.909000000     0.105000000     3.415000000
O    -7.474000000    -0.022000000     2.467000000
H    -6.518000000     0.025000000     2.476000000
H    -7.672000000    -0.756000000     1.885000000
O    -1.884000000     5.222000000     3.057000000
H    -2.719000000     4.920000000     2.699000000
H    -2.051000000     6.126000000     3.324000000
O    -5.325000000    -2.123000000     4.571000000
H    -4.654000000    -1.902000000     5.216000000
H    -5.179000000    -1.507000000     3.853000000
O    -7.432000000     2.140000000     0.640000000
H    -7.671000000     1.506000000     1.316000000
H    -6.475000000     2.140000000     0.639000000
O    -7.836000000    -3.168000000     3.790000000
H    -8.348000000    -3.122000000     4.597000000
H    -6.949000000    -2.924000000     4.055000000
O    -3.443000000     2.627000000     4.843000000
H    -3.601000000     2.289000000     3.961000000
H    -3.969000000     2.066000000     5.412000000
O    -1.195000000     0.909000000     5.404000000
H    -1.273000000     1.845000000     5.587000000
H    -1.254000000     0.846000000     4.451000000
O    -3.668000000    -0.703000000     6.301000000
H    -2.788000000    -0.465000000     6.008000000
H    -4.067000000     0.129000000     6.557000000
O    -4.462000000     4.268000000     1.546000000
H    -5.312000000     4.661000000     1.351000000
H    -4.621000000     3.324000000     1.513000000
O    -7.115000000     3.941000000     3.302000000
H    -6.822000000     3.326000000     2.629000000
H    -6.307000000     4.259000000     3.704000000
O    -8.435000000     3.882000000    -1.456000000
H    -8.175000000     3.206000000    -0.831000000
H    -9.126000000     3.474000000    -1.978000000
O    -4.616000000     1.613000000     7.333000000
H    -5.222000000     1.530000000     8.068000000
H    -3.967000000     2.251000000     7.628000000
O    -0.950000000     4.182000000     5.848000000
H    -0.034000000     4.457000000     5.805000000
H    -1.234000000     4.152000000     4.934000000
O    -0.878000000     2.713000000     2.926000000
H    -1.246000000     3.588000000     2.803000000
H    -0.717000000     2.394000000     2.038000000
O    -5.597000000     6.409000000     0.002000000
H    -4.932000000     5.937000000    -0.498000000
H    -6.115000000     6.866000000    -0.661000000
O    -4.993000000     4.857000000     4.821000000
H    -5.032000000     5.304000000     5.667000000
H    -4.228000000     4.287000000     4.886000000
O    -9.583000000    -0.153000000     0.297000000
H    -8.795000000     0.373000000     0.158000000
H    -9.423000000    -0.958000000    -0.196000000
O    -7.880000000     1.883000000     5.309000000
H    -8.550000000     1.294000000     4.961000000
H    -7.439000000     2.229000000     4.534000000
