215
-1445.16660
C    -2.726000000    -4.359000000     0.697000000
H    -1.859000000    -4.895000000     1.072000000
C    -2.663000000    -3.707000000    -0.504000000
C    -3.854000000    -3.137000000    -0.966000000
H    -3.819000000    -2.539000000    -1.873000000
C    -1.391000000    -3.663000000    -1.298000000
O    -0.429000000    -4.675000000    -0.847000000
H    -0.963000000    -2.674000000    -1.079000000
O    -1.582000000    -3.750000000    -2.737000000
C    -0.893000000    -2.982000000    -3.612000000
C    -1.624000000    -1.870000000    -4.058000000
H    -2.695000000    -1.804000000    -3.887000000
C    -0.945000000    -0.804000000    -4.520000000
O    -1.647000000     0.306000000    -4.740000000
C     0.438000000    -0.826000000    -4.739000000
C     1.143000000     0.336000000    -5.424000000
H     1.900000000    -0.113000000    -6.070000000
C     1.668000000     1.278000000    -4.395000000
C     2.943000000     1.078000000    -3.779000000
H     3.657000000     0.372000000    -4.196000000
H     0.405000000     0.749000000    -6.116000000
C     1.194000000    -1.885000000    -4.337000000
H     2.279000000    -1.919000000    -4.381000000
C     0.509000000    -2.982000000    -3.807000000
C     1.349000000    -4.141000000    -3.242000000
H     2.269000000    -4.288000000    -3.812000000
H     0.823000000    -5.097000000    -3.307000000
C     1.780000000    -4.089000000    -1.757000000
C     3.100000000    -3.735000000    -1.538000000
H     3.746000000    -3.461000000    -2.369000000
C     0.912000000    -4.428000000    -0.674000000
C     1.409000000    -4.257000000     0.632000000
H     0.781000000    -4.484000000     1.490000000
C     2.705000000    -3.780000000     0.889000000
O     2.925000000    -3.311000000     2.131000000
C     2.978000000    -1.904000000     2.418000000
C     2.363000000    -1.719000000     3.862000000
C     2.811000000    -0.821000000     4.792000000
H     3.577000000    -0.105000000     4.507000000
C     1.264000000    -2.492000000     4.247000000
H     0.884000000    -3.183000000     3.499000000
O     4.326000000    -1.475000000     2.365000000
H     2.341000000    -1.370000000     1.698000000
C     3.573000000    -3.521000000    -0.233000000
C     4.904000000    -2.862000000    -0.059000000
H     5.483000000    -3.202000000    -0.920000000
H     5.347000000    -3.281000000     0.847000000
C     4.882000000    -1.339000000     0.037000000
C     4.932000000    -0.496000000    -1.098000000
H     5.188000000    -0.911000000    -2.069000000
C     4.786000000    -0.768000000     1.319000000
C     4.649000000     0.665000000     1.402000000
H     4.359000000     1.092000000     2.358000000
C     4.631000000     1.489000000     0.271000000
O     4.239000000     2.760000000     0.503000000
C     2.808000000     3.135000000     0.129000000
C     1.995000000     3.911000000     1.116000000
C     2.529000000     4.083000000     2.385000000
H     3.553000000     3.841000000     2.658000000
C     0.709000000     4.307000000     0.856000000
H     0.275000000     4.150000000    -0.128000000
O     2.843000000     3.755000000    -1.215000000
H     2.230000000     2.199000000     0.108000000
C     4.749000000     0.860000000    -0.987000000
C     4.774000000     1.781000000    -2.182000000
H     5.482000000     1.427000000    -2.934000000
H     5.262000000     2.656000000    -1.749000000
C     3.385000000     1.946000000    -2.791000000
C     2.535000000     2.951000000    -2.312000000
C     1.240000000     3.033000000    -2.840000000
H     0.624000000     3.795000000    -2.369000000
C     0.782000000     2.262000000    -3.897000000
O    -0.518000000     2.326000000    -4.432000000
C    -1.437000000     1.407000000    -3.847000000
H    -0.950000000     1.038000000    -2.932000000
C    -2.763000000     2.099000000    -3.557000000
C    -3.927000000     1.368000000    -3.602000000
H    -3.882000000     0.304000000    -3.818000000
C    -2.870000000     3.505000000    -3.316000000
H    -1.957000000     4.091000000    -3.260000000
C    -4.055000000     4.138000000    -3.045000000
O    -4.066000000     5.441000000    -2.576000000
C    -5.262000000     3.417000000    -3.143000000
H    -6.225000000     3.883000000    -2.949000000
C    -5.180000000     2.052000000    -3.482000000
O    -6.390000000     1.393000000    -3.671000000
C    -6.571000000     0.068000000    -3.326000000
C    -6.147000000    -0.407000000    -2.067000000
H    -5.630000000     0.104000000    -1.259000000
C    -7.232000000    -0.723000000    -4.232000000
H    -7.630000000    -0.219000000    -5.108000000
C    -7.349000000    -2.124000000    -3.967000000
H    -7.908000000    -2.774000000    -4.636000000
C    -6.945000000    -2.619000000    -2.736000000
H    -7.106000000    -3.663000000    -2.480000000
C    -6.406000000    -1.772000000    -1.834000000
O    -6.110000000    -2.329000000    -0.542000000
C    -4.956000000    -2.998000000    -0.120000000
C    -4.986000000    -3.526000000     1.092000000
H    -5.869000000    -3.446000000     1.721000000
C    -3.882000000    -4.224000000     1.497000000
O    -3.861000000    -4.760000000     2.761000000
C    -2.667000000    -4.914000000     3.467000000
C    -2.109000000    -3.976000000     4.271000000
H    -2.638000000    -3.029000000     4.340000000
C    -1.972000000    -6.081000000     3.471000000
H    -2.331000000    -6.872000000     2.818000000
C    -0.742000000    -6.256000000     4.110000000
H    -0.164000000    -7.170000000     4.000000000
C    -0.230000000    -5.297000000     4.935000000
H     0.674000000    -5.410000000     5.529000000
C    -0.930000000    -4.121000000     4.972000000
O    -0.506000000    -3.091000000     5.735000000
C     0.626000000    -2.418000000     5.455000000
C     1.065000000    -1.510000000     6.389000000
H     0.608000000    -1.343000000     7.360000000
C     2.080000000    -0.657000000     5.986000000
O     2.364000000     0.395000000     6.906000000
C     2.915000000     1.552000000     6.474000000
C     2.121000000     2.490000000     5.831000000
H     1.054000000     2.287000000     5.791000000
C     4.305000000     1.712000000     6.544000000
H     4.910000000     0.909000000     6.959000000
C     4.873000000     2.806000000     5.979000000
H     5.943000000     2.955000000     6.097000000
C     4.050000000     3.799000000     5.378000000
H     4.603000000     4.654000000     4.996000000
C     2.683000000     3.643000000     5.351000000
O     1.882000000     4.586000000     4.776000000
C     1.643000000     4.624000000     3.400000000
C     0.365000000     5.000000000     3.110000000
H    -0.209000000     5.377000000     3.952000000
C    -0.048000000     4.960000000     1.783000000
O    -1.314000000     5.438000000     1.458000000
C    -1.681000000     5.906000000     0.240000000
C    -0.955000000     6.915000000    -0.332000000
H    -0.091000000     7.300000000     0.204000000
C    -1.289000000     7.610000000    -1.488000000
H    -0.763000000     8.473000000    -1.887000000
C    -2.377000000     7.128000000    -2.210000000
H    -2.698000000     7.663000000    -3.100000000
C    -3.112000000     6.021000000    -1.731000000
C    -2.732000000     5.339000000    -0.595000000
H    -3.214000000     4.425000000    -0.258000000
C    -1.640000000    -0.778000000     1.464000000
H    -1.913000000    -1.521000000     2.208000000
C    -0.425000000    -0.875000000     0.797000000
H     0.292000000    -1.640000000     1.082000000
C    -0.068000000     0.138000000    -0.114000000
H     0.857000000     0.180000000    -0.660000000
C    -0.977000000     1.082000000    -0.432000000
H    -0.765000000     1.911000000    -1.103000000
C    -2.249000000     1.090000000     0.160000000
H    -3.022000000     1.829000000    -0.034000000
C    -2.597000000     0.152000000     1.141000000
C    -3.996000000     0.179000000     1.811000000
O    -4.787000000     1.071000000     1.499000000
O    -4.126000000    -0.469000000     2.831000000
O    -7.179000000    -0.156000000     1.861000000
H    -7.024000000    -1.045000000     1.542000000
H    -6.309000000     0.242000000     1.892000000
O    -6.276000000    -1.080000000     6.693000000
H    -5.880000000    -1.440000000     5.900000000
H    -6.050000000    -1.707000000     7.380000000
O    -2.035000000     2.512000000     3.399000000
H    -2.935000000     2.822000000     3.499000000
H    -1.841000000     2.633000000     2.469000000
O    -5.032000000    -2.213000000     4.692000000
H    -5.211000000    -3.120000000     4.442000000
H    -4.675000000    -1.812000000     3.900000000
O    -1.590000000     3.907000000     6.900000000
H    -2.470000000     4.035000000     7.255000000
H    -1.642000000     4.245000000     6.006000000
O    -5.590000000     3.499000000     1.560000000
H    -6.523000000     3.540000000     1.350000000
H    -5.378000000     2.566000000     1.532000000
O    -8.360000000    -3.968000000     3.999000000
H    -8.869000000    -4.714000000     3.682000000
H    -7.542000000    -4.352000000     4.313000000
O    -3.192000000     6.332000000     4.949000000
H    -3.310000000     5.658000000     4.280000000
H    -4.073000000     6.672000000     5.104000000
O    -6.049000000     0.784000000     4.519000000
H    -5.618000000     0.302000000     3.813000000
H    -6.168000000     0.137000000     5.214000000
O    -2.537000000    -0.359000000     5.086000000
H    -2.984000000    -0.585000000     4.270000000
H    -1.654000000    -0.108000000     4.813000000
O    -3.070000000    -1.673000000     7.461000000
H    -2.149000000    -1.863000000     7.640000000
H    -3.058000000    -1.181000000     6.640000000
O    -4.592000000     3.932000000     4.083000000
H    -5.113000000     3.649000000     4.834000000
H    -5.068000000     3.601000000     3.321000000
O    -8.695000000     1.544000000     4.626000000
H    -7.784000000     1.262000000     4.711000000
H    -8.733000000     1.974000000     3.772000000
O    -0.671000000     1.572000000     7.757000000
H    -0.824000000     2.451000000     7.412000000
H    -0.774000000     0.996000000     7.000000000
O    -9.578000000     1.138000000     1.356000000
H   -10.112000000     0.721000000     0.679000000
H    -8.933000000     0.473000000     1.595000000
O    -0.120000000     0.695000000     4.251000000
H    -0.794000000     1.285000000     3.912000000
H     0.621000000     0.811000000     3.656000000
O    -4.609000000     6.465000000     2.195000000
H    -5.328000000     6.792000000     2.737000000
H    -4.673000000     5.512000000     2.264000000
O    -3.941000000     1.208000000     6.686000000
H    -3.399000000     0.456000000     6.449000000
H    -4.438000000     1.406000000     5.892000000
O    -8.737000000     3.362000000     2.529000000
H    -9.356000000     4.036000000     2.248000000
H    -8.842000000     2.658000000     1.889000000
