215
-1457.44762
C    -3.230000000    -4.391000000     0.745000000
H    -2.247000000    -4.766000000     1.016000000
C    -3.222000000    -3.595000000    -0.422000000
C    -4.394000000    -2.859000000    -0.772000000
H    -4.322000000    -2.233000000    -1.658000000
C    -1.915000000    -3.516000000    -1.198000000
O    -1.192000000    -4.714000000    -1.097000000
H    -1.286000000    -2.656000000    -0.925000000
O    -2.292000000    -3.360000000    -2.651000000
C    -1.485000000    -2.535000000    -3.390000000
C    -1.971000000    -1.289000000    -3.587000000
H    -2.996000000    -1.106000000    -3.275000000
C    -1.243000000    -0.242000000    -4.161000000
O    -1.779000000     1.061000000    -4.358000000
C     0.024000000    -0.588000000    -4.669000000
C     0.834000000     0.431000000    -5.425000000
H     1.527000000    -0.015000000    -6.142000000
C     1.554000000     1.316000000    -4.414000000
C     2.865000000     0.969000000    -4.096000000
H     3.337000000     0.106000000    -4.559000000
H     0.128000000     1.007000000    -6.027000000
C     0.547000000    -1.905000000    -4.541000000
H     1.581000000    -2.060000000    -4.837000000
C    -0.192000000    -2.872000000    -3.853000000
C     0.413000000    -4.264000000    -3.605000000
H     1.164000000    -4.447000000    -4.376000000
H    -0.397000000    -4.996000000    -3.616000000
C     1.072000000    -4.253000000    -2.191000000
C     2.500000000    -3.993000000    -2.027000000
H     3.221000000    -3.868000000    -2.831000000
C     0.241000000    -4.603000000    -1.036000000
C     0.807000000    -4.518000000     0.222000000
H     0.162000000    -4.758000000     1.063000000
C     2.174000000    -4.150000000     0.411000000
O     2.619000000    -3.871000000     1.635000000
C     2.716000000    -2.518000000     2.119000000
C     2.216000000    -2.512000000     3.583000000
C     2.675000000    -1.544000000     4.502000000
H     3.476000000    -0.918000000     4.116000000
C     1.154000000    -3.305000000     3.979000000
H     0.767000000    -4.010000000     3.247000000
O     4.096000000    -1.992000000     1.966000000
H     1.972000000    -1.846000000     1.667000000
C     2.963000000    -3.827000000    -0.696000000
C     4.384000000    -3.298000000    -0.599000000
H     4.938000000    -3.553000000    -1.504000000
H     4.832000000    -3.707000000     0.309000000
C     4.467000000    -1.859000000    -0.380000000
C     4.578000000    -1.021000000    -1.498000000
H     4.712000000    -1.453000000    -2.487000000
C     4.467000000    -1.241000000     0.839000000
C     4.521000000     0.108000000     1.048000000
H     4.390000000     0.513000000     2.048000000
C     4.712000000     0.879000000    -0.042000000
O     4.614000000     2.246000000     0.133000000
C     3.407000000     2.879000000    -0.166000000
C     2.902000000     3.849000000     0.873000000
C     2.580000000     3.304000000     2.093000000
H     2.944000000     2.325000000     2.396000000
C     2.476000000     5.158000000     0.520000000
H     2.616000000     5.517000000    -0.496000000
O     3.529000000     3.524000000    -1.451000000
H     2.657000000     2.089000000    -0.315000000
C     4.586000000     0.369000000    -1.351000000
C     4.813000000     1.226000000    -2.579000000
H     5.212000000     0.614000000    -3.391000000
H     5.555000000     1.972000000    -2.288000000
C     3.476000000     1.674000000    -3.088000000
C     2.969000000     2.851000000    -2.540000000
C     1.674000000     3.258000000    -2.968000000
H     1.255000000     4.116000000    -2.448000000
C     0.980000000     2.489000000    -3.872000000
O    -0.338000000     2.824000000    -4.082000000
C    -1.316000000     2.037000000    -3.409000000
H    -0.840000000     1.508000000    -2.570000000
C    -2.467000000     2.858000000    -2.874000000
C    -3.720000000     2.225000000    -2.701000000
H    -3.840000000     1.236000000    -3.136000000
C    -2.293000000     4.197000000    -2.375000000
H    -1.338000000     4.680000000    -2.563000000
C    -3.303000000     4.755000000    -1.609000000
O    -3.053000000     5.909000000    -0.849000000
C    -4.514000000     4.108000000    -1.465000000
H    -5.270000000     4.489000000    -0.784000000
C    -4.794000000     2.887000000    -2.079000000
O    -5.951000000     2.183000000    -1.764000000
C    -6.224000000     0.898000000    -2.099000000
C    -6.464000000    -0.040000000    -1.039000000
H    -6.473000000     0.333000000    -0.018000000
C    -6.316000000     0.447000000    -3.441000000
H    -6.251000000     1.097000000    -4.310000000
C    -6.618000000    -0.930000000    -3.647000000
H    -6.674000000    -1.197000000    -4.699000000
C    -6.854000000    -1.784000000    -2.628000000
H    -7.093000000    -2.816000000    -2.870000000
C    -6.784000000    -1.374000000    -1.295000000
O    -6.708000000    -2.265000000    -0.303000000
C    -5.552000000    -2.988000000     0.005000000
C    -5.488000000    -3.756000000     1.143000000
H    -6.362000000    -3.756000000     1.788000000
C    -4.371000000    -4.553000000     1.513000000
O    -4.297000000    -5.201000000     2.741000000
C    -3.158000000    -5.578000000     3.383000000
C    -2.559000000    -4.609000000     4.177000000
H    -2.992000000    -3.613000000     4.224000000
C    -2.413000000    -6.754000000     3.172000000
H    -2.808000000    -7.523000000     2.514000000
C    -1.164000000    -6.861000000     3.753000000
H    -0.552000000    -7.747000000     3.600000000
C    -0.624000000    -5.918000000     4.624000000
H     0.357000000    -6.117000000     5.047000000
C    -1.305000000    -4.784000000     4.770000000
O    -0.675000000    -3.783000000     5.528000000
C     0.535000000    -3.094000000     5.222000000
C     1.053000000    -2.162000000     6.122000000
H     0.682000000    -2.025000000     7.134000000
C     2.229000000    -1.407000000     5.766000000
O     2.704000000    -0.515000000     6.669000000
C     2.828000000     0.822000000     6.316000000
C     2.019000000     1.418000000     5.324000000
H     1.233000000     0.838000000     4.847000000
C     3.846000000     1.516000000     6.900000000
H     4.316000000     1.091000000     7.783000000
C     4.043000000     2.874000000     6.577000000
H     4.776000000     3.443000000     7.143000000
C     3.260000000     3.502000000     5.701000000
H     3.371000000     4.567000000     5.513000000
C     2.256000000     2.790000000     5.033000000
O     1.401000000     3.496000000     4.163000000
C     1.790000000     4.028000000     2.942000000
C     1.323000000     5.285000000     2.661000000
H     0.569000000     5.748000000     3.293000000
C     1.649000000     5.845000000     1.416000000
O     1.110000000     7.046000000     1.110000000
C     0.223000000     7.241000000     0.099000000
C     0.498000000     8.135000000    -0.975000000
H     1.424000000     8.704000000    -1.002000000
C    -0.462000000     8.324000000    -1.998000000
H    -0.233000000     9.085000000    -2.739000000
C    -1.631000000     7.494000000    -2.038000000
H    -2.303000000     7.541000000    -2.891000000
C    -1.914000000     6.691000000    -0.928000000
C    -0.921000000     6.459000000     0.025000000
H    -1.124000000     5.695000000     0.771000000
C    -3.048000000     0.760000000     0.586000000
H    -3.842000000     0.024000000     0.483000000
C    -1.831000000     0.441000000     0.112000000
H    -1.594000000    -0.539000000    -0.296000000
C    -0.860000000     1.422000000     0.035000000
H     0.158000000     1.157000000    -0.378000000
C    -1.104000000     2.685000000     0.517000000
H    -0.386000000     3.498000000     0.443000000
C    -2.356000000     3.047000000     1.026000000
H    -2.608000000     4.006000000     1.472000000
C    -3.337000000     2.039000000     1.082000000
C    -4.739000000     2.294000000     1.722000000
O    -5.159000000     3.342000000     2.084000000
O    -5.343000000     1.278000000     1.917000000
O    -9.678000000     1.076000000     1.663000000
H    -9.156000000     1.856000000     1.474000000
H    -9.948000000     0.754000000     0.803000000
O    -8.181000000     5.281000000     3.225000000
H    -8.157000000     5.500000000     4.157000000
H    -8.667000000     4.458000000     3.185000000
O    -9.915000000     3.351000000     4.574000000
H    -9.396000000     2.792000000     3.995000000
H    -9.755000000     3.002000000     5.450000000
O    -4.391000000     8.131000000     0.547000000
H    -4.119000000     7.553000000    -0.165000000
H    -4.730000000     7.540000000     1.219000000
O    -3.878000000     4.908000000     4.325000000
H    -4.395000000     4.763000000     3.533000000
H    -3.798000000     4.040000000     4.721000000
O    -7.335000000    -1.557000000     4.029000000
H    -7.573000000    -0.640000000     4.166000000
H    -6.408000000    -1.531000000     3.791000000
O    -9.240000000     2.847000000    -1.193000000
H    -8.762000000     2.999000000    -0.377000000
H    -9.358000000     1.898000000    -1.229000000
O    -5.506000000    -0.786000000     6.247000000
H    -5.229000000    -0.740000000     5.332000000
H    -5.003000000    -1.513000000     6.614000000
O    -1.593000000     6.335000000     5.303000000
H    -2.167000000     5.657000000     4.947000000
H    -1.269000000     6.803000000     4.534000000
O    -7.809000000     3.046000000     1.145000000
H    -7.837000000     3.882000000     1.610000000
H    -6.887000000     2.788000000     1.171000000
O    -2.079000000    -0.245000000     4.469000000
H    -1.676000000    -0.282000000     5.336000000
H    -1.370000000     0.031000000     3.887000000
O    -6.198000000     2.684000000     5.389000000
H    -6.741000000     2.160000000     4.800000000
H    -5.373000000     2.796000000     4.917000000
O    -4.698000000    -0.939000000     3.388000000
H    -3.748000000    -0.835000000     3.436000000
H    -4.988000000    -0.228000000     2.817000000
O    -4.127000000     1.477000000     7.375000000
H    -3.901000000     1.928000000     6.561000000
H    -4.803000000     0.849000000     7.121000000
O    -3.009000000     2.300000000     4.773000000
H    -2.120000000     2.491000000     5.071000000
H    -3.026000000     1.349000000     4.662000000
O    -0.395000000     1.104000000     3.053000000
H    -0.748000000     1.030000000     2.167000000
H    -0.154000000     2.027000000     3.138000000
O    -5.343000000     3.985000000     7.752000000
H    -4.726000000     3.280000000     7.948000000
H    -5.754000000     3.722000000     6.929000000
O    -5.610000000     5.939000000     2.060000000
H    -6.385000000     6.057000000     2.608000000
H    -5.518000000     4.990000000     1.975000000
O    -7.434000000     1.176000000     3.474000000
H    -6.677000000     1.441000000     2.951000000
H    -8.017000000     0.744000000     2.849000000
