215
-1452.39618
C    -1.599000000    -5.401000000     1.018000000
H    -0.644000000    -5.830000000     1.309000000
C    -1.780000000    -4.652000000    -0.109000000
C    -3.008000000    -3.986000000    -0.303000000
H    -3.098000000    -3.367000000    -1.192000000
C    -0.552000000    -4.381000000    -1.074000000
O     0.587000000    -5.275000000    -0.929000000
H    -0.166000000    -3.392000000    -0.783000000
O    -0.946000000    -4.301000000    -2.463000000
C    -0.334000000    -3.376000000    -3.291000000
C    -1.137000000    -2.326000000    -3.756000000
H    -2.135000000    -2.224000000    -3.338000000
C    -0.604000000    -1.188000000    -4.356000000
O    -1.505000000    -0.214000000    -4.621000000
C     0.745000000    -1.176000000    -4.656000000
C     1.396000000    -0.046000000    -5.456000000
H     2.342000000    -0.411000000    -5.862000000
C     1.682000000     1.163000000    -4.540000000
C     2.912000000     1.378000000    -3.897000000
H     3.769000000     0.710000000    -3.924000000
H     0.806000000     0.197000000    -6.342000000
C     1.464000000    -2.327000000    -4.371000000
H     2.520000000    -2.320000000    -4.628000000
C     1.026000000    -3.416000000    -3.617000000
C     2.021000000    -4.408000000    -3.124000000
H     2.876000000    -4.356000000    -3.800000000
H     1.648000000    -5.424000000    -3.270000000
C     2.577000000    -4.234000000    -1.742000000
C     3.656000000    -3.366000000    -1.550000000
H     4.209000000    -3.015000000    -2.418000000
C     1.796000000    -4.587000000    -0.687000000
C     2.059000000    -4.151000000     0.601000000
H     1.544000000    -4.619000000     1.436000000
C     3.162000000    -3.268000000     0.827000000
O     3.447000000    -2.846000000     2.132000000
C     2.835000000    -1.588000000     2.521000000
C     2.092000000    -1.551000000     3.850000000
C     1.808000000    -0.283000000     4.398000000
H     2.274000000     0.608000000     3.986000000
C     1.529000000    -2.744000000     4.410000000
H     1.691000000    -3.735000000     3.992000000
O     3.860000000    -0.514000000     2.413000000
H     2.127000000    -1.212000000     1.767000000
C     3.996000000    -2.799000000    -0.270000000
C     5.132000000    -1.813000000    -0.003000000
H     5.849000000    -2.021000000    -0.800000000
H     5.561000000    -2.184000000     0.930000000
C     4.646000000    -0.366000000     0.134000000
C     4.749000000     0.360000000    -1.002000000
H     5.213000000    -0.183000000    -1.821000000
C     3.988000000     0.186000000     1.230000000
C     3.625000000     1.504000000     1.292000000
H     3.222000000     1.839000000     2.244000000
C     3.850000000     2.275000000     0.184000000
O     3.377000000     3.564000000     0.170000000
C     2.097000000     3.795000000    -0.403000000
C     1.428000000     4.775000000     0.537000000
C     1.268000000     4.581000000     1.971000000
H     1.834000000     3.812000000     2.491000000
C     0.699000000     5.773000000    -0.060000000
H     0.535000000     5.803000000    -1.134000000
O     2.189000000     4.246000000    -1.738000000
H     1.525000000     2.856000000    -0.399000000
C     4.358000000     1.726000000    -1.011000000
C     4.461000000     2.528000000    -2.339000000
H     5.292000000     2.088000000    -2.893000000
H     4.692000000     3.586000000    -2.195000000
C     3.127000000     2.418000000    -3.005000000
C     2.124000000     3.340000000    -2.740000000
C     0.871000000     3.165000000    -3.413000000
H     0.078000000     3.900000000    -3.302000000
C     0.679000000     2.164000000    -4.363000000
O    -0.635000000     1.983000000    -4.664000000
C    -1.419000000     1.042000000    -3.845000000
H    -0.865000000     0.976000000    -2.897000000
C    -2.737000000     1.629000000    -3.414000000
C    -3.849000000     0.768000000    -3.111000000
H    -3.735000000    -0.309000000    -3.209000000
C    -2.797000000     2.999000000    -3.093000000
H    -2.008000000     3.667000000    -3.430000000
C    -3.926000000     3.575000000    -2.502000000
O    -4.115000000     4.904000000    -2.153000000
C    -5.014000000     2.678000000    -2.196000000
H    -5.986000000     2.978000000    -1.811000000
C    -4.981000000     1.302000000    -2.463000000
O    -6.015000000     0.607000000    -1.884000000
C    -6.003000000    -0.722000000    -1.928000000
C    -5.672000000    -1.436000000    -0.795000000
H    -5.471000000    -0.914000000     0.136000000
C    -6.167000000    -1.369000000    -3.096000000
H    -6.285000000    -0.841000000    -4.039000000
C    -6.044000000    -2.780000000    -3.171000000
H    -6.168000000    -3.265000000    -4.135000000
C    -5.771000000    -3.489000000    -2.005000000
H    -5.723000000    -4.574000000    -2.047000000
C    -5.535000000    -2.825000000    -0.811000000
O    -5.298000000    -3.531000000     0.355000000
C    -4.085000000    -4.106000000     0.562000000
C    -3.897000000    -4.882000000     1.701000000
H    -4.734000000    -5.034000000     2.377000000
C    -2.670000000    -5.584000000     1.877000000
O    -2.486000000    -6.402000000     2.968000000
C    -1.521000000    -6.205000000     3.900000000
C    -1.130000000    -4.961000000     4.273000000
H    -1.506000000    -4.013000000     3.898000000
C    -1.084000000    -7.380000000     4.513000000
H    -1.397000000    -8.377000000     4.215000000
C    -0.251000000    -7.235000000     5.626000000
H     0.247000000    -8.101000000     6.053000000
C     0.140000000    -5.953000000     6.070000000
H     0.808000000    -5.864000000     6.923000000
C    -0.318000000    -4.808000000     5.373000000
O    -0.016000000    -3.605000000     5.984000000
C     0.619000000    -2.530000000     5.418000000
C     0.345000000    -1.315000000     5.958000000
H    -0.375000000    -1.135000000     6.752000000
C     0.866000000    -0.157000000     5.397000000
O     0.480000000     1.037000000     5.922000000
C     1.075000000     2.214000000     5.678000000
C     0.381000000     3.137000000     4.919000000
H    -0.575000000     2.836000000     4.499000000
C     2.292000000     2.477000000     6.271000000
H     2.774000000     1.766000000     6.937000000
C     2.873000000     3.741000000     6.031000000
H     3.770000000     4.025000000     6.576000000
C     2.240000000     4.645000000     5.113000000
H     2.668000000     5.618000000     4.887000000
C     0.959000000     4.347000000     4.692000000
O     0.302000000     5.297000000     3.982000000
C     0.487000000     5.433000000     2.684000000
C    -0.194000000     6.532000000     2.093000000
H    -0.867000000     7.165000000     2.666000000
C    -0.142000000     6.623000000     0.711000000
O    -0.963000000     7.566000000     0.129000000
C    -1.567000000     7.201000000    -1.070000000
C    -1.398000000     7.977000000    -2.220000000
H    -0.687000000     8.790000000    -2.093000000
C    -2.041000000     7.659000000    -3.420000000
H    -1.890000000     8.223000000    -4.338000000
C    -2.868000000     6.602000000    -3.416000000
H    -3.497000000     6.443000000    -4.288000000
C    -3.109000000     5.841000000    -2.228000000
C    -2.487000000     6.170000000    -1.058000000
H    -2.753000000     5.775000000    -0.081000000
C    -2.183000000    -0.892000000     2.409000000
H    -2.418000000    -1.098000000     3.450000000
C    -1.032000000    -1.407000000     1.894000000
H    -0.351000000    -2.006000000     2.494000000
C    -0.634000000    -1.094000000     0.585000000
H     0.357000000    -1.403000000     0.292000000
C    -1.442000000    -0.303000000    -0.199000000
H    -1.225000000    -0.015000000    -1.225000000
C    -2.666000000     0.205000000     0.374000000
H    -3.416000000     0.780000000    -0.164000000
C    -3.113000000    -0.139000000     1.660000000
C    -4.326000000     0.442000000     2.354000000
O    -5.087000000     1.183000000     1.773000000
O    -4.444000000     0.293000000     3.557000000
O    -6.782000000     3.386000000     2.634000000
H    -6.327000000     2.547000000     2.565000000
H    -7.710000000     3.154000000     2.667000000
O    -2.927000000     3.891000000     3.324000000
H    -3.209000000     3.052000000     3.688000000
H    -3.220000000     3.868000000     2.413000000
O    -7.968000000    -2.262000000     1.932000000
H    -8.595000000    -1.634000000     2.290000000
H    -7.879000000    -2.015000000     1.012000000
O    -2.594000000     1.453000000     8.607000000
H    -1.776000000     1.931000000     8.742000000
H    -2.587000000     1.225000000     7.677000000
O    -2.429000000     5.289000000     5.794000000
H    -2.608000000     4.530000000     5.240000000
H    -2.958000000     5.992000000     5.417000000
O    -4.215000000    -2.701000000     6.144000000
H    -4.595000000    -2.803000000     5.271000000
H    -4.355000000    -3.549000000     6.566000000
O    -5.611000000     6.080000000     1.670000000
H    -6.549000000     5.919000000     1.765000000
H    -5.298000000     5.360000000     1.124000000
O    -7.006000000     5.904000000     4.720000000
H    -6.904000000     5.255000000     4.024000000
H    -7.509000000     5.452000000     5.397000000
O    -7.955000000     1.248000000     0.831000000
H    -8.073000000     2.009000000     0.263000000
H    -7.006000000     1.158000000     0.917000000
O    -6.435000000     1.203000000     5.478000000
H    -5.891000000     0.985000000     4.721000000
H    -5.851000000     1.104000000     6.230000000
O    -5.967000000    -2.199000000     3.817000000
H    -6.722000000    -2.138000000     3.231000000
H    -5.459000000    -1.408000000     3.636000000
O    -9.918000000    -0.130000000     2.482000000
H   -10.247000000     0.433000000     3.182000000
H    -9.458000000     0.466000000     1.892000000
O    -9.026000000     1.893000000     6.400000000
H    -8.197000000     1.690000000     5.967000000
H    -8.772000000     2.353000000     7.200000000
O    -6.003000000    -1.512000000     7.958000000
H    -5.887000000    -2.058000000     8.736000000
H    -5.360000000    -1.845000000     7.333000000
O    -7.954000000    -4.304000000     4.152000000
H    -7.880000000    -3.881000000     3.297000000
H    -8.075000000    -3.580000000     4.768000000
O     0.299000000     1.673000000     1.665000000
H    -0.230000000     0.883000000     1.774000000
H    -0.340000000     2.383000000     1.610000000
O    -2.951000000     0.304000000     5.909000000
H    -3.137000000    -0.625000000     6.043000000
H    -3.235000000     0.478000000     5.011000000
O    -3.887000000     3.420000000     0.793000000
H    -3.941000000     3.213000000    -0.140000000
H    -4.356000000     2.705000000     1.225000000
O    -9.572000000     0.265000000    -1.333000000
H    -8.923000000     0.192000000    -2.032000000
H    -9.140000000     0.788000000    -0.658000000
