14
-88.33610
C    -1.248000000    -0.826000000     1.541000000
H    -1.380000000    -1.620000000     2.271000000
C    -0.102000000    -0.758000000     0.750000000
H     0.769000000    -1.399000000     0.864000000
C     0.002000000     0.129000000    -0.284000000
H     0.889000000     0.135000000    -0.914000000
C    -1.040000000     1.053000000    -0.470000000
H    -0.991000000     1.771000000    -1.284000000
C    -2.220000000     0.942000000     0.317000000
H    -3.083000000     1.588000000     0.183000000
C    -2.308000000     0.027000000     1.356000000
C    -3.626000000    -0.179000000     2.046000000
O    -4.605000000     0.540000000     1.850000000
O    -3.828000000    -1.274000000     2.587000000
