14
-85.02006
C    -1.813000000    -0.393000000     1.382000000
H    -2.312000000    -1.093000000     2.047000000
C    -0.463000000    -0.574000000     1.117000000
H     0.086000000    -1.419000000     1.526000000
C     0.126000000     0.353000000     0.193000000
H     1.148000000     0.222000000    -0.071000000
C    -0.649000000     1.458000000    -0.315000000
H    -0.104000000     2.035000000    -1.058000000
C    -1.978000000     1.628000000     0.023000000
H    -2.475000000     2.368000000    -0.599000000
C    -2.622000000     0.699000000     0.907000000
C    -4.154000000     0.756000000     1.188000000
O    -4.703000000     1.816000000     1.002000000
O    -4.674000000    -0.152000000     1.817000000
