14
-83.17787
C    -2.147000000    -1.183000000     1.324000000
H    -2.612000000    -1.965000000     1.918000000
C    -0.938000000    -1.214000000     0.658000000
H    -0.300000000    -2.083000000     0.792000000
C    -0.492000000    -0.130000000    -0.043000000
H     0.597000000    -0.112000000    -0.371000000
C    -1.307000000     0.959000000    -0.330000000
H    -0.829000000     1.840000000    -0.753000000
C    -2.648000000     0.908000000     0.174000000
H    -3.291000000     1.770000000     0.012000000
C    -3.036000000    -0.109000000     0.966000000
C    -4.447000000    -0.140000000     1.480000000
O    -5.174000000     0.828000000     1.394000000
O    -4.893000000    -1.091000000     2.126000000
