14
-82.05951
C    -1.939000000     0.652000000     0.001000000
H    -2.818000000     0.953000000     0.565000000
C    -1.007000000    -0.207000000     0.503000000
H    -1.264000000    -0.776000000     1.393000000
C     0.266000000    -0.321000000    -0.081000000
H     1.131000000    -0.993000000     0.343000000
C     0.582000000     0.555000000    -1.091000000
H     1.584000000     0.675000000    -1.497000000
C    -0.381000000     1.402000000    -1.670000000
H    -0.204000000     2.108000000    -2.478000000
C    -1.701000000     1.419000000    -1.151000000
C    -2.797000000     2.286000000    -1.617000000
O    -2.538000000     3.130000000    -2.425000000
O    -3.905000000     2.233000000    -1.126000000
