14
-89.27488
C    -2.179000000     0.203000000     2.588000000
H    -2.518000000    -0.491000000     3.353000000
C    -0.841000000     0.141000000     2.221000000
H    -0.141000000    -0.551000000     2.684000000
C    -0.348000000     0.918000000     1.227000000
H     0.669000000     0.869000000     1.007000000
C    -1.203000000     1.813000000     0.574000000
H    -0.815000000     2.404000000    -0.252000000
C    -2.578000000     1.818000000     0.896000000
H    -3.260000000     2.454000000     0.337000000
C    -3.091000000     1.021000000     1.912000000
C    -4.526000000     1.073000000     2.294000000
O    -5.248000000     1.895000000     1.688000000
O    -5.042000000     0.347000000     3.098000000
