14
-79.54536
C    -2.072000000     0.092000000     1.441000000
H    -2.542000000    -0.491000000     2.229000000
C    -0.818000000    -0.214000000     0.958000000
H    -0.274000000    -1.087000000     1.310000000
C    -0.224000000     0.494000000    -0.070000000
H     0.756000000     0.220000000    -0.397000000
C    -0.821000000     1.642000000    -0.476000000
H    -0.229000000     2.252000000    -1.153000000
C    -2.038000000     2.041000000     0.037000000
H    -2.386000000     3.050000000    -0.164000000
C    -2.696000000     1.225000000     0.947000000
C    -4.057000000     1.633000000     1.477000000
O    -4.832000000     2.389000000     0.958000000
O    -4.606000000     0.909000000     2.345000000
