14
-91.66066
C    -1.279000000    -0.321000000     0.525000000
H    -2.062000000    -0.720000000     1.164000000
C    -0.020000000    -0.812000000     0.814000000
H     0.090000000    -1.598000000     1.557000000
C     1.060000000    -0.383000000     0.104000000
H     2.029000000    -0.856000000     0.214000000
C     0.936000000     0.657000000    -0.868000000
H     1.799000000     1.007000000    -1.430000000
C    -0.348000000     1.233000000    -1.048000000
H    -0.450000000     2.005000000    -1.807000000
C    -1.460000000     0.711000000    -0.363000000
C    -2.814000000     1.354000000    -0.606000000
O    -2.833000000     2.404000000    -1.323000000
O    -3.854000000     0.739000000    -0.360000000
