14
-82.93190
C    -2.033000000    -0.023000000     1.906000000
H    -2.694000000    -0.414000000     2.675000000
C    -1.005000000    -0.799000000     1.392000000
H    -0.764000000    -1.715000000     1.925000000
C    -0.418000000    -0.466000000     0.184000000
H     0.330000000    -1.094000000    -0.326000000
C    -0.669000000     0.713000000    -0.390000000
H    -0.160000000     0.972000000    -1.315000000
C    -1.559000000     1.602000000     0.196000000
H    -1.838000000     2.596000000    -0.144000000
C    -2.254000000     1.196000000     1.331000000
C    -3.324000000     2.134000000     1.936000000
O    -3.254000000     3.319000000     1.654000000
O    -4.161000000     1.797000000     2.716000000
