14
-88.12015
C    -2.151000000    -2.110000000     1.545000000
H    -2.516000000    -2.860000000     2.243000000
C    -0.881000000    -2.180000000     1.020000000
H    -0.185000000    -2.931000000     1.384000000
C    -0.375000000    -1.289000000     0.116000000
H     0.606000000    -1.481000000    -0.367000000
C    -1.176000000    -0.173000000    -0.222000000
H    -0.818000000     0.532000000    -0.968000000
C    -2.503000000    -0.098000000     0.214000000
H    -3.131000000     0.730000000    -0.105000000
C    -2.989000000    -1.079000000     1.159000000
C    -4.429000000    -0.981000000     1.603000000
O    -5.080000000     0.000000000     1.423000000
O    -4.775000000    -1.857000000     2.420000000
