14
-88.10204
C    -2.432000000    -1.572000000     2.210000000
H    -2.861000000    -2.146000000     3.028000000
C    -1.086000000    -1.575000000     2.149000000
H    -0.498000000    -2.179000000     2.835000000
C    -0.426000000    -0.730000000     1.257000000
H     0.627000000    -0.716000000     1.144000000
C    -1.223000000     0.026000000     0.459000000
H    -0.781000000     0.765000000    -0.204000000
C    -2.610000000     0.064000000     0.532000000
H    -3.181000000     0.755000000    -0.083000000
C    -3.267000000    -0.796000000     1.385000000
C    -4.770000000    -0.891000000     1.532000000
O    -5.455000000    -0.054000000     0.970000000
O    -5.230000000    -1.698000000     2.292000000
