14
-83.29178
C    -0.367000000    -0.464000000     2.031000000
H     0.037000000    -1.139000000     2.781000000
C     0.251000000    -0.415000000     0.758000000
H     1.116000000    -1.028000000     0.520000000
C    -0.246000000     0.435000000    -0.243000000
H     0.008000000     0.468000000    -1.299000000
C    -1.302000000     1.263000000     0.043000000
H    -1.826000000     1.914000000    -0.652000000
C    -1.960000000     1.216000000     1.314000000
H    -2.872000000     1.797000000     1.418000000
C    -1.495000000     0.309000000     2.316000000
C    -2.128000000     0.283000000     3.661000000
O    -3.224000000     0.847000000     3.851000000
O    -1.781000000    -0.505000000     4.497000000
