14
-81.48233
C    -0.739000000    -1.309000000     1.638000000
H    -0.024000000    -1.613000000     2.398000000
C    -0.311000000    -0.947000000     0.375000000
H     0.742000000    -1.139000000     0.190000000
C    -1.157000000    -0.415000000    -0.563000000
H    -0.679000000    -0.141000000    -1.518000000
C    -2.463000000    -0.106000000    -0.208000000
H    -3.082000000     0.284000000    -1.011000000
C    -2.911000000    -0.361000000     1.121000000
H    -3.966000000    -0.171000000     1.304000000
C    -2.057000000    -0.964000000     2.055000000
C    -2.553000000    -1.381000000     3.453000000
O    -3.635000000    -0.972000000     3.786000000
O    -1.733000000    -1.654000000     4.302000000
