14
-83.52537
C    -1.485000000    -0.951000000     2.220000000
H    -1.297000000    -1.240000000     3.251000000
C    -0.494000000    -0.305000000     1.435000000
H     0.439000000     0.094000000     1.826000000
C    -0.724000000    -0.179000000     0.088000000
H     0.140000000     0.131000000    -0.565000000
C    -2.020000000    -0.437000000    -0.414000000
H    -2.194000000    -0.352000000    -1.484000000
C    -2.963000000    -0.952000000     0.393000000
H    -3.928000000    -1.228000000    -0.025000000
C    -2.679000000    -1.389000000     1.697000000
C    -3.734000000    -2.105000000     2.557000000
O    -4.770000000    -2.443000000     2.042000000
O    -3.506000000    -2.400000000     3.688000000
