14
-84.16462
C    -1.177000000    -0.855000000     2.048000000
H    -0.935000000    -0.626000000     3.083000000
C    -0.212000000    -0.710000000     1.064000000
H     0.863000000    -0.586000000     1.166000000
C    -0.625000000    -0.727000000    -0.234000000
H     0.105000000    -0.591000000    -0.992000000
C    -1.954000000    -0.937000000    -0.583000000
H    -2.328000000    -0.866000000    -1.601000000
C    -2.882000000    -1.157000000     0.435000000
H    -3.898000000    -1.444000000     0.178000000
C    -2.560000000    -1.047000000     1.790000000
C    -3.600000000    -1.087000000     2.933000000
O    -4.496000000    -1.856000000     2.758000000
O    -3.345000000    -0.658000000     4.065000000
