14
-79.60348
C    -0.689000000    -0.878000000     1.907000000
H     0.122000000    -1.272000000     2.514000000
C    -0.341000000    -0.391000000     0.652000000
H     0.714000000    -0.435000000     0.394000000
C    -1.307000000     0.103000000    -0.186000000
H    -1.077000000     0.577000000    -1.221000000
C    -2.640000000     0.114000000     0.212000000
H    -3.397000000     0.554000000    -0.433000000
C    -2.940000000    -0.311000000     1.469000000
H    -3.970000000    -0.199000000     1.797000000
C    -1.997000000    -0.845000000     2.319000000
C    -2.338000000    -1.341000000     3.734000000
O    -3.396000000    -1.859000000     4.042000000
O    -1.546000000    -1.273000000     4.606000000
