14
-80.34925
C    -1.820000000    -0.822000000     2.057000000
H    -1.455000000    -0.933000000     3.075000000
C    -0.778000000    -0.453000000     1.204000000
H     0.224000000    -0.367000000     1.615000000
C    -0.931000000    -0.383000000    -0.159000000
H    -0.118000000    -0.121000000    -0.815000000
C    -2.259000000    -0.584000000    -0.659000000
H    -2.428000000    -0.567000000    -1.732000000
C    -3.357000000    -0.952000000     0.127000000
H    -4.355000000    -1.165000000    -0.245000000
C    -3.114000000    -1.089000000     1.544000000
C    -4.208000000    -1.376000000     2.515000000
O    -5.372000000    -1.454000000     2.128000000
O    -4.083000000    -1.361000000     3.706000000
