14
-85.87525
C    -1.369000000    -0.550000000     2.126000000
H    -1.107000000    -0.299000000     3.151000000
C    -0.445000000    -0.092000000     1.206000000
H     0.488000000     0.343000000     1.554000000
C    -0.651000000    -0.269000000    -0.173000000
H     0.098000000    -0.069000000    -0.967000000
C    -1.877000000    -0.876000000    -0.531000000
H    -2.203000000    -1.120000000    -1.539000000
C    -2.849000000    -1.141000000     0.386000000
H    -3.801000000    -1.538000000     0.044000000
C    -2.610000000    -1.006000000     1.746000000
C    -3.619000000    -1.336000000     2.802000000
O    -4.728000000    -1.548000000     2.409000000
O    -3.322000000    -1.349000000     3.978000000
