14
-78.15707
C    -0.997000000     0.239000000     2.634000000
H    -1.005000000     0.558000000     3.674000000
C    -0.468000000     1.027000000     1.560000000
H    -0.220000000     2.063000000     1.779000000
C    -0.467000000     0.553000000     0.249000000
H    -0.005000000     1.116000000    -0.571000000
C    -0.914000000    -0.765000000     0.030000000
H    -1.061000000    -1.228000000    -0.942000000
C    -1.444000000    -1.557000000     1.075000000
H    -1.938000000    -2.499000000     0.852000000
C    -1.516000000    -1.001000000     2.387000000
C    -2.238000000    -1.745000000     3.397000000
O    -2.938000000    -2.712000000     3.072000000
O    -2.578000000    -1.155000000     4.398000000
