14
-73.35072
C    -0.689000000     0.196000000     2.244000000
H    -0.655000000     0.482000000     3.292000000
C     0.319000000     0.774000000     1.475000000
H     1.039000000     1.471000000     1.896000000
C     0.417000000     0.436000000     0.123000000
H     1.101000000     1.058000000    -0.502000000
C    -0.487000000    -0.484000000    -0.476000000
H    -0.558000000    -0.734000000    -1.532000000
C    -1.442000000    -0.971000000     0.346000000
H    -2.219000000    -1.577000000    -0.114000000
C    -1.611000000    -0.717000000     1.717000000
C    -2.490000000    -1.563000000     2.530000000
O    -3.329000000    -2.274000000     1.945000000
O    -2.803000000    -1.102000000     3.606000000
