14
-82.73964
C     0.005000000     0.145000000     2.894000000
H     0.256000000     0.585000000     3.856000000
C     0.382000000     0.802000000     1.716000000
H     0.930000000     1.739000000     1.780000000
C     0.264000000     0.122000000     0.487000000
H     0.660000000     0.532000000    -0.470000000
C    -0.362000000    -1.068000000     0.389000000
H    -0.299000000    -1.581000000    -0.567000000
C    -0.943000000    -1.647000000     1.504000000
H    -1.550000000    -2.548000000     1.478000000
C    -0.648000000    -1.142000000     2.767000000
C    -0.964000000    -1.892000000     3.994000000
O    -1.551000000    -2.968000000     4.033000000
O    -0.775000000    -1.374000000     5.092000000
