14
-85.15466
C    -0.155000000     0.075000000     2.610000000
H    -0.130000000     0.705000000     3.496000000
C     0.037000000     0.648000000     1.362000000
H     0.498000000     1.631000000     1.417000000
C    -0.268000000    -0.099000000     0.219000000
H    -0.075000000     0.250000000    -0.806000000
C    -0.773000000    -1.384000000     0.409000000
H    -1.002000000    -2.011000000    -0.449000000
C    -0.971000000    -2.015000000     1.614000000
H    -1.527000000    -2.945000000     1.701000000
C    -0.642000000    -1.266000000     2.783000000
C    -0.744000000    -1.902000000     4.183000000
O    -0.925000000    -3.105000000     4.380000000
O    -0.680000000    -1.206000000     5.223000000
