14
-79.80829
C    -0.358000000     0.496000000     2.294000000
H    -0.261000000     1.138000000     3.166000000
C    -0.283000000     0.943000000     0.964000000
H    -0.237000000     1.994000000     0.691000000
C    -0.404000000    -0.025000000    -0.058000000
H    -0.394000000     0.285000000    -1.134000000
C    -0.531000000    -1.382000000     0.220000000
H    -0.525000000    -2.092000000    -0.603000000
C    -0.548000000    -1.792000000     1.589000000
H    -0.684000000    -2.860000000     1.743000000
C    -0.624000000    -0.828000000     2.611000000
C    -0.777000000    -1.341000000     4.033000000
O    -0.598000000    -2.474000000     4.356000000
O    -0.995000000    -0.609000000     4.992000000
