14
-83.08297
C    -1.099000000     0.695000000     2.183000000
H    -1.214000000     1.520000000     2.881000000
C    -0.666000000     0.944000000     0.898000000
H    -0.488000000     1.974000000     0.597000000
C    -0.611000000    -0.026000000    -0.058000000
H    -0.294000000     0.228000000    -1.061000000
C    -0.966000000    -1.321000000     0.360000000
H    -0.990000000    -2.068000000    -0.428000000
C    -1.325000000    -1.596000000     1.649000000
H    -1.407000000    -2.652000000     1.893000000
C    -1.339000000    -0.637000000     2.611000000
C    -1.605000000    -0.919000000     4.073000000
O    -1.843000000    -2.054000000     4.483000000
O    -1.575000000    -0.072000000     4.927000000
