14
-87.65798
C    -2.007000000     1.538000000     0.600000000
H    -2.888000000     1.844000000     1.158000000
C    -1.424000000     0.246000000     0.586000000
H    -1.676000000    -0.577000000     1.250000000
C    -0.320000000     0.022000000    -0.199000000
H     0.246000000    -0.910000000    -0.063000000
C     0.281000000     1.018000000    -0.939000000
H     1.167000000     0.802000000    -1.531000000
C    -0.411000000     2.283000000    -1.012000000
H     0.012000000     2.984000000    -1.727000000
C    -1.475000000     2.520000000    -0.173000000
C    -2.177000000     3.863000000    -0.214000000
O    -2.045000000     4.527000000    -1.261000000
O    -2.966000000     4.242000000     0.656000000
