14
-88.93385
C    -0.852000000     0.307000000     2.185000000
H    -1.054000000     1.185000000     2.793000000
C    -0.476000000     0.505000000     0.845000000
H    -0.438000000     1.526000000     0.477000000
C    -0.116000000    -0.578000000     0.053000000
H     0.172000000    -0.345000000    -0.959000000
C    -0.141000000    -1.861000000     0.576000000
H     0.071000000    -2.704000000    -0.077000000
C    -0.570000000    -2.038000000     1.850000000
H    -0.523000000    -3.091000000     2.117000000
C    -0.915000000    -1.006000000     2.710000000
C    -1.339000000    -1.186000000     4.197000000
O    -1.323000000    -2.332000000     4.649000000
O    -1.734000000    -0.276000000     4.878000000
