14
-88.14979
C    -0.969000000     0.807000000     2.897000000
H    -1.205000000     1.442000000     3.748000000
C    -0.619000000     1.376000000     1.700000000
H    -0.433000000     2.434000000     1.534000000
C    -0.375000000     0.560000000     0.634000000
H    -0.263000000     0.923000000    -0.380000000
C    -0.435000000    -0.868000000     0.756000000
H    -0.224000000    -1.530000000    -0.080000000
C    -0.713000000    -1.459000000     2.021000000
H    -0.630000000    -2.526000000     2.211000000
C    -1.024000000    -0.618000000     3.092000000
C    -1.281000000    -1.246000000     4.460000000
O    -1.458000000    -2.430000000     4.617000000
O    -1.477000000    -0.474000000     5.400000000
