14
-75.58464
C    -0.518000000     0.536000000     1.846000000
H    -0.677000000     1.421000000     2.457000000
C    -0.610000000     0.610000000     0.458000000
H    -0.797000000     1.525000000    -0.098000000
C    -0.503000000    -0.470000000    -0.289000000
H    -0.583000000    -0.366000000    -1.361000000
C    -0.217000000    -1.687000000     0.294000000
H     0.110000000    -2.513000000    -0.332000000
C    -0.079000000    -1.782000000     1.708000000
H     0.410000000    -2.661000000     2.121000000
C    -0.321000000    -0.667000000     2.478000000
C    -0.277000000    -0.816000000     4.032000000
O    -0.349000000    -1.909000000     4.462000000
O    -0.219000000     0.110000000     4.775000000
