14
-88.26344
C    -1.107000000     0.361000000     2.383000000
H    -1.588000000     0.910000000     3.189000000
C    -1.016000000     0.856000000     1.075000000
H    -1.426000000     1.809000000     0.749000000
C    -0.358000000     0.039000000     0.099000000
H    -0.361000000     0.431000000    -0.915000000
C     0.226000000    -1.141000000     0.481000000
H     0.771000000    -1.785000000    -0.203000000
C     0.201000000    -1.544000000     1.809000000
H     0.557000000    -2.550000000     2.013000000
C    -0.457000000    -0.757000000     2.799000000
C    -0.416000000    -1.087000000     4.277000000
O     0.434000000    -1.917000000     4.696000000
O    -1.235000000    -0.645000000     5.031000000
