14
-84.44202
C    -0.001000000     0.005000000     1.526000000
H     0.141000000     0.840000000     2.209000000
C     0.184000000     0.200000000     0.143000000
H     0.557000000     1.125000000    -0.289000000
C     0.166000000    -0.915000000    -0.631000000
H     0.234000000    -0.800000000    -1.721000000
C    -0.259000000    -2.122000000    -0.146000000
H    -0.378000000    -2.919000000    -0.875000000
C    -0.424000000    -2.292000000     1.196000000
H    -0.762000000    -3.257000000     1.567000000
C    -0.351000000    -1.219000000     2.071000000
C    -0.768000000    -1.423000000     3.542000000
O    -0.981000000    -2.605000000     3.916000000
O    -0.870000000    -0.502000000     4.245000000
