14
-86.06268
C    -0.866000000     1.079000000     2.280000000
H    -1.062000000     1.872000000     2.997000000
C    -0.446000000     1.455000000     0.967000000
H    -0.364000000     2.511000000     0.722000000
C    -0.193000000     0.561000000    -0.012000000
H     0.176000000     0.953000000    -0.987000000
C    -0.231000000    -0.812000000     0.308000000
H     0.128000000    -1.608000000    -0.339000000
C    -0.529000000    -1.205000000     1.626000000
H    -0.555000000    -2.269000000     1.845000000
C    -0.834000000    -0.254000000     2.671000000
C    -1.187000000    -0.687000000     4.074000000
O    -0.697000000    -1.683000000     4.510000000
O    -1.704000000     0.161000000     4.803000000
