14
-84.13774
C    -1.005000000     0.282000000     2.678000000
H    -1.716000000     0.703000000     3.384000000
C    -1.150000000     0.703000000     1.378000000
H    -2.085000000     1.183000000     1.100000000
C    -0.146000000     0.380000000     0.436000000
H    -0.309000000     0.659000000    -0.681000000
C     0.958000000    -0.370000000     0.819000000
H     1.706000000    -0.573000000     0.056000000
C     1.194000000    -0.712000000     2.115000000
H     2.180000000    -1.037000000     2.437000000
C     0.201000000    -0.394000000     3.064000000
C     0.381000000    -0.761000000     4.543000000
O     1.172000000    -1.606000000     4.843000000
O    -0.427000000    -0.355000000     5.403000000
