14
-92.46348
C    -1.638000000     1.322000000     1.245000000
H    -2.350000000     1.728000000     1.958000000
C    -1.169000000    -0.006000000     1.370000000
H    -1.707000000    -0.631000000     2.077000000
C    -0.190000000    -0.492000000     0.527000000
H     0.090000000    -1.528000000     0.669000000
C     0.306000000     0.281000000    -0.488000000
H     1.157000000    -0.054000000    -1.075000000
C    -0.173000000     1.604000000    -0.588000000
H     0.179000000     2.313000000    -1.334000000
C    -1.140000000     2.110000000     0.254000000
C    -1.779000000     3.468000000     0.067000000
O    -1.531000000     3.946000000    -1.038000000
O    -2.557000000     3.960000000     0.913000000
