14
-91.44389
C    -0.241000000     1.140000000     2.174000000
H    -0.563000000     1.619000000     3.095000000
C    -0.621000000     1.755000000     0.918000000
H    -1.159000000     2.696000000     0.995000000
C    -0.261000000     1.127000000    -0.296000000
H    -0.570000000     1.525000000    -1.215000000
C     0.453000000    -0.042000000    -0.293000000
H     0.731000000    -0.397000000    -1.282000000
C     0.715000000    -0.673000000     0.936000000
H     1.274000000    -1.601000000     1.029000000
C     0.404000000    -0.103000000     2.172000000
C     0.701000000    -0.910000000     3.472000000
O     1.354000000    -1.943000000     3.386000000
O     0.119000000    -0.578000000     4.545000000
