14
-91.43053
C    -0.963000000     0.394000000     2.756000000
H    -1.333000000     0.981000000     3.592000000
C    -0.925000000     0.992000000     1.470000000
H    -1.264000000     2.023000000     1.523000000
C    -0.483000000     0.315000000     0.306000000
H    -0.510000000     0.842000000    -0.657000000
C    -0.057000000    -1.047000000     0.448000000
H     0.269000000    -1.673000000    -0.378000000
C    -0.077000000    -1.598000000     1.767000000
H     0.399000000    -2.564000000     1.906000000
C    -0.489000000    -0.880000000     2.888000000
C    -0.433000000    -1.516000000     4.251000000
O    -0.156000000    -2.715000000     4.295000000
O    -0.635000000    -0.835000000     5.241000000
