14
-84.39969
C    -1.050000000    -2.643000000     2.140000000
H    -1.442000000    -3.655000000     2.193000000
C    -1.332000000    -1.738000000     1.099000000
H    -2.171000000    -1.912000000     0.431000000
C    -0.639000000    -0.584000000     0.994000000
H    -0.863000000     0.114000000     0.161000000
C     0.368000000    -0.269000000     1.893000000
H     0.985000000     0.613000000     1.743000000
C     0.658000000    -1.141000000     2.951000000
H     1.473000000    -0.915000000     3.634000000
C    -0.111000000    -2.301000000     3.104000000
C     0.100000000    -3.208000000     4.323000000
O     0.576000000    -2.786000000     5.296000000
O    -0.452000000    -4.322000000     4.356000000
