14
-82.97570
C    -0.984000000    -3.110000000     2.319000000
H    -1.739000000    -3.892000000     2.320000000
C    -0.820000000    -2.428000000     1.134000000
H    -1.338000000    -2.775000000     0.244000000
C     0.134000000    -1.355000000     1.160000000
H     0.190000000    -0.788000000     0.198000000
C     0.853000000    -0.968000000     2.268000000
H     1.610000000    -0.191000000     2.203000000
C     0.591000000    -1.674000000     3.451000000
H     1.150000000    -1.329000000     4.317000000
C    -0.419000000    -2.700000000     3.514000000
C    -0.691000000    -3.420000000     4.826000000
O    -0.067000000    -3.204000000     5.832000000
O    -1.752000000    -4.046000000     4.968000000
