14
-87.14442
C    -1.504000000     0.689000000     0.623000000
H    -2.409000000     1.057000000     1.100000000
C    -0.919000000    -0.572000000     1.013000000
H    -1.450000000    -1.081000000     1.814000000
C     0.256000000    -0.985000000     0.467000000
H     0.746000000    -1.904000000     0.754000000
C     0.802000000    -0.272000000    -0.636000000
H     1.738000000    -0.671000000    -1.018000000
C     0.161000000     0.815000000    -1.120000000
H     0.632000000     1.321000000    -1.959000000
C    -1.006000000     1.351000000    -0.501000000
C    -1.748000000     2.593000000    -1.003000000
O    -1.493000000     3.082000000    -2.070000000
O    -2.707000000     3.059000000    -0.386000000
