14
-90.35625
C    -0.283000000    -2.105000000     1.792000000
H    -0.710000000    -3.096000000     1.928000000
C    -0.503000000    -1.434000000     0.612000000
H    -1.150000000    -1.843000000    -0.160000000
C     0.196000000    -0.194000000     0.480000000
H     0.007000000     0.315000000    -0.522000000
C     0.968000000     0.359000000     1.497000000
H     1.495000000     1.304000000     1.396000000
C     1.134000000    -0.351000000     2.663000000
H     1.793000000     0.027000000     3.440000000
C     0.525000000    -1.584000000     2.864000000
C     0.624000000    -2.337000000     4.216000000
O     1.100000000    -1.676000000     5.106000000
O     0.116000000    -3.418000000     4.327000000
