14
-82.10447
C    -0.989000000    -1.419000000     1.288000000
H    -1.892000000    -2.024000000     1.301000000
C    -0.672000000    -0.712000000     0.115000000
H    -1.258000000    -0.925000000    -0.775000000
C     0.444000000     0.136000000     0.031000000
H     0.743000000     0.644000000    -0.909000000
C     1.128000000     0.396000000     1.194000000
H     2.017000000     1.016000000     1.111000000
C     0.833000000    -0.232000000     2.419000000
H     1.417000000    -0.067000000     3.321000000
C    -0.290000000    -1.078000000     2.462000000
C    -0.836000000    -1.647000000     3.762000000
O    -0.321000000    -1.263000000     4.781000000
O    -1.862000000    -2.221000000     3.827000000
