14
-93.08582
C    -0.158000000    -2.138000000     2.069000000
H    -0.585000000    -3.136000000     2.128000000
C    -0.198000000    -1.339000000     0.912000000
H    -0.577000000    -1.823000000     0.015000000
C     0.239000000    -0.029000000     0.957000000
H     0.056000000     0.583000000     0.113000000
C     0.763000000     0.472000000     2.157000000
H     0.960000000     1.537000000     2.251000000
C     0.781000000    -0.306000000     3.322000000
H     1.265000000     0.011000000     4.243000000
C     0.412000000    -1.643000000     3.279000000
C     0.385000000    -2.480000000     4.555000000
O     0.508000000    -1.951000000     5.649000000
O     0.305000000    -3.738000000     4.415000000
