14
-85.17850
C    -0.268000000    -1.823000000     2.487000000
H    -0.724000000    -2.805000000     2.583000000
C    -0.196000000    -1.281000000     1.220000000
H    -0.835000000    -1.732000000     0.465000000
C     0.476000000    -0.108000000     1.001000000
H     0.508000000     0.280000000     0.002000000
C     1.107000000     0.545000000     2.034000000
H     1.560000000     1.520000000     1.868000000
C     0.985000000     0.014000000     3.339000000
H     1.392000000     0.477000000     4.235000000
C     0.350000000    -1.214000000     3.573000000
C     0.472000000    -1.930000000     4.883000000
O     0.829000000    -1.385000000     5.903000000
O    -0.003000000    -3.037000000     4.975000000
