14
-88.09242
C    -1.877000000    -0.632000000     2.121000000
H    -2.801000000    -1.063000000     2.498000000
C    -1.762000000    -0.465000000     0.780000000
H    -2.656000000    -0.689000000     0.204000000
C    -0.540000000    -0.108000000     0.220000000
H    -0.386000000    -0.033000000    -0.806000000
C     0.542000000     0.075000000     1.068000000
H     1.495000000     0.340000000     0.616000000
C     0.429000000    -0.083000000     2.466000000
H     1.315000000    -0.036000000     3.095000000
C    -0.788000000    -0.500000000     3.025000000
C    -0.793000000    -0.933000000     4.502000000
O     0.217000000    -0.733000000     5.193000000
O    -1.678000000    -1.663000000     5.022000000
