14
-72.66911
C    -1.125000000     0.019000000     2.033000000
H    -1.653000000    -0.367000000     2.901000000
C    -0.989000000    -0.824000000     0.895000000
H    -1.421000000    -1.818000000     0.813000000
C    -0.287000000    -0.388000000    -0.171000000
H    -0.104000000    -1.120000000    -1.035000000
C     0.315000000     0.869000000    -0.156000000
H     0.766000000     1.080000000    -1.122000000
C     0.174000000     1.736000000     0.834000000
H     0.811000000     2.615000000     0.783000000
C    -0.516000000     1.312000000     1.989000000
C    -0.487000000     2.187000000     3.223000000
O     0.523000000     2.781000000     3.514000000
O    -1.280000000     1.982000000     4.083000000
