14
-83.75833
C    -1.960000000     1.166000000     0.601000000
H    -2.798000000     1.605000000     1.137000000
C    -1.238000000     0.069000000     1.069000000
H    -1.535000000    -0.350000000     2.027000000
C    -0.113000000    -0.339000000     0.430000000
H     0.506000000    -1.206000000     0.731000000
C     0.403000000     0.325000000    -0.685000000
H     1.312000000    -0.088000000    -1.117000000
C    -0.292000000     1.493000000    -1.136000000
H     0.142000000     2.103000000    -1.924000000
C    -1.511000000     1.852000000    -0.555000000
C    -2.205000000     3.079000000    -1.002000000
O    -1.708000000     3.701000000    -1.946000000
O    -3.071000000     3.596000000    -0.384000000
