14
-85.95715
C    -1.277000000    -0.365000000     1.998000000
H    -2.010000000    -1.151000000     2.159000000
C    -0.513000000    -0.364000000     0.807000000
H    -0.633000000    -1.175000000     0.094000000
C     0.398000000     0.673000000     0.519000000
H     0.869000000     0.613000000    -0.498000000
C     0.611000000     1.677000000     1.488000000
H     1.277000000     2.520000000     1.320000000
C    -0.247000000     1.662000000     2.636000000
H    -0.130000000     2.493000000     3.326000000
C    -1.189000000     0.694000000     2.908000000
C    -1.909000000     0.712000000     4.228000000
O    -1.557000000     1.530000000     5.064000000
O    -2.524000000    -0.286000000     4.641000000
