14
-93.11734
C    -0.945000000     0.803000000     2.934000000
H    -1.748000000     0.699000000     3.659000000
C    -0.841000000     0.138000000     1.697000000
H    -1.671000000    -0.500000000     1.402000000
C     0.190000000     0.440000000     0.811000000
H     0.333000000    -0.089000000    -0.109000000
C     1.115000000     1.482000000     1.091000000
H     1.884000000     1.818000000     0.401000000
C     1.015000000     2.094000000     2.366000000
H     1.725000000     2.843000000     2.707000000
C    -0.028000000     1.790000000     3.268000000
C    -0.138000000     2.522000000     4.560000000
O     0.824000000     3.189000000     5.012000000
O    -1.128000000     2.244000000     5.269000000
