14
-79.44274
C    -1.001000000     0.410000000     2.579000000
H    -1.719000000    -0.071000000     3.238000000
C    -1.104000000     0.022000000     1.252000000
H    -1.858000000    -0.729000000     1.032000000
C    -0.284000000     0.441000000     0.247000000
H    -0.424000000    -0.033000000    -0.708000000
C     0.864000000     1.117000000     0.641000000
H     1.605000000     1.325000000    -0.126000000
C     1.017000000     1.432000000     1.999000000
H     1.892000000     1.963000000     2.366000000
C     0.023000000     1.221000000     2.945000000
C     0.036000000     1.624000000     4.384000000
O     0.952000000     2.314000000     4.753000000
O    -0.855000000     1.352000000     5.146000000
