14
-84.13166
C    -1.634000000     0.527000000     3.052000000
H    -2.230000000     0.461000000     3.959000000
C    -1.793000000    -0.536000000     2.264000000
H    -2.619000000    -1.234000000     2.367000000
C    -1.118000000    -0.579000000     1.057000000
H    -1.334000000    -1.383000000     0.403000000
C    -0.102000000     0.372000000     0.804000000
H     0.551000000     0.256000000    -0.057000000
C     0.130000000     1.392000000     1.733000000
H     0.955000000     2.080000000     1.569000000
C    -0.652000000     1.506000000     2.862000000
C    -0.486000000     2.593000000     3.916000000
O     0.588000000     3.193000000     4.064000000
O    -1.315000000     2.658000000     4.799000000
