14
-82.10023
C    -0.655000000    -1.130000000     1.285000000
H    -0.261000000    -1.943000000     1.889000000
C     0.223000000    -0.521000000     0.425000000
H     1.267000000    -0.821000000     0.468000000
C    -0.230000000     0.362000000    -0.533000000
H     0.492000000     0.810000000    -1.164000000
C    -1.533000000     0.793000000    -0.416000000
H    -1.842000000     1.586000000    -1.092000000
C    -2.433000000     0.288000000     0.566000000
H    -3.439000000     0.667000000     0.726000000
C    -1.944000000    -0.738000000     1.458000000
C    -2.862000000    -1.202000000     2.596000000
O    -3.933000000    -0.704000000     2.741000000
O    -2.633000000    -2.267000000     3.170000000
