14
-78.79000
C    -0.955000000     0.888000000     2.254000000
H    -1.402000000     0.445000000     3.141000000
C    -0.784000000     0.091000000     1.138000000
H    -1.157000000    -0.929000000     1.154000000
C    -0.176000000     0.642000000    -0.039000000
H    -0.148000000     0.124000000    -0.989000000
C     0.191000000     2.023000000    -0.009000000
H     0.625000000     2.438000000    -0.915000000
C     0.070000000     2.741000000     1.154000000
H     0.451000000     3.751000000     1.033000000
C    -0.555000000     2.246000000     2.236000000
C    -0.774000000     3.177000000     3.405000000
O    -0.598000000     4.361000000     3.383000000
O    -1.061000000     2.729000000     4.486000000
