14
-86.20424
C    -0.878000000    -0.286000000     2.252000000
H    -1.195000000    -0.628000000     3.234000000
C    -0.708000000    -1.150000000     1.173000000
H    -0.837000000    -2.223000000     1.290000000
C    -0.158000000    -0.728000000    -0.037000000
H    -0.079000000    -1.443000000    -0.918000000
C     0.278000000     0.537000000    -0.137000000
H     0.639000000     0.893000000    -1.098000000
C     0.166000000     1.411000000     0.908000000
H     0.542000000     2.430000000     0.877000000
C    -0.322000000     0.981000000     2.151000000
C    -0.337000000     1.910000000     3.364000000
O     0.322000000     2.928000000     3.406000000
O    -0.986000000     1.554000000     4.312000000
