14
-79.95739
C    -1.306000000     0.786000000     1.267000000
H    -2.131000000     0.862000000     1.971000000
C    -0.948000000    -0.542000000     0.923000000
H    -1.379000000    -1.441000000     1.355000000
C     0.067000000    -0.754000000     0.005000000
H     0.339000000    -1.811000000    -0.152000000
C     0.689000000     0.354000000    -0.511000000
H     1.450000000     0.062000000    -1.230000000
C     0.208000000     1.629000000    -0.342000000
H     0.570000000     2.490000000    -0.897000000
C    -0.721000000     1.866000000     0.692000000
C    -1.379000000     3.175000000     0.902000000
O    -1.139000000     4.171000000     0.170000000
O    -2.192000000     3.355000000     1.765000000
