14
-81.33397
C    -0.657000000     0.405000000     2.418000000
H    -1.255000000     0.299000000     3.320000000
C    -0.950000000    -0.241000000     1.194000000
H    -1.854000000    -0.825000000     1.040000000
C    -0.172000000     0.020000000     0.081000000
H    -0.454000000    -0.427000000    -0.772000000
C     0.862000000     0.930000000     0.151000000
H     1.454000000     1.009000000    -0.757000000
C     1.136000000     1.626000000     1.325000000
H     1.934000000     2.366000000     1.337000000
C     0.329000000     1.421000000     2.492000000
C     0.570000000     2.307000000     3.648000000
O     1.553000000     2.994000000     3.666000000
O    -0.204000000     2.303000000     4.542000000
