14
-80.50665
C    -0.740000000     0.354000000     2.104000000
H    -1.156000000     0.103000000     3.077000000
C    -0.606000000    -0.698000000     1.224000000
H    -0.839000000    -1.740000000     1.432000000
C     0.044000000    -0.449000000     0.082000000
H     0.128000000    -1.309000000    -0.570000000
C     0.472000000     0.824000000    -0.301000000
H     0.893000000     0.965000000    -1.293000000
C     0.250000000     1.894000000     0.516000000
H     0.519000000     2.909000000     0.235000000
C    -0.210000000     1.634000000     1.837000000
C    -0.433000000     2.739000000     2.848000000
O     0.405000000     3.586000000     2.907000000
O    -1.424000000     2.855000000     3.562000000
