14
-90.05159
C    -0.876000000     1.042000000     2.669000000
H    -1.413000000     1.014000000     3.613000000
C    -0.833000000    -0.130000000     1.910000000
H    -1.191000000    -1.110000000     2.216000000
C    -0.061000000    -0.187000000     0.741000000
H     0.041000000    -1.117000000     0.152000000
C     0.515000000     0.994000000     0.251000000
H     1.045000000     0.985000000    -0.698000000
C     0.413000000     2.175000000     0.951000000
H     0.931000000     3.070000000     0.617000000
C    -0.256000000     2.222000000     2.211000000
C    -0.188000000     3.481000000     2.992000000
O     0.306000000     4.481000000     2.566000000
O    -0.664000000     3.477000000     4.170000000
