14
-81.20165
C    -0.800000000     0.580000000     2.254000000
H    -0.988000000     0.379000000     3.306000000
C    -0.625000000    -0.498000000     1.376000000
H    -0.667000000    -1.518000000     1.748000000
C    -0.170000000    -0.228000000     0.156000000
H    -0.033000000    -1.015000000    -0.531000000
C    -0.057000000     1.122000000    -0.251000000
H     0.177000000     1.285000000    -1.300000000
C    -0.284000000     2.197000000     0.593000000
H    -0.228000000     3.243000000     0.303000000
C    -0.699000000     1.924000000     1.861000000
C    -0.907000000     2.955000000     2.931000000
O    -0.871000000     4.142000000     2.677000000
O    -0.892000000     2.655000000     4.103000000
