14
-86.52669
C    -0.840000000     0.335000000     2.182000000
H    -1.346000000     0.231000000     3.138000000
C    -0.633000000    -0.884000000     1.440000000
H    -1.026000000    -1.851000000     1.745000000
C    -0.166000000    -0.767000000     0.114000000
H     0.010000000    -1.686000000    -0.409000000
C     0.078000000     0.477000000    -0.489000000
H     0.358000000     0.512000000    -1.539000000
C    -0.196000000     1.653000000     0.221000000
H     0.032000000     2.602000000    -0.256000000
C    -0.497000000     1.605000000     1.620000000
C    -0.555000000     2.858000000     2.467000000
O    -0.500000000     3.918000000     1.910000000
O    -0.729000000     2.737000000     3.656000000
