14
-86.11944
C    -2.235000000     1.388000000     0.821000000
H    -3.210000000     1.487000000     1.290000000
C    -1.605000000     0.176000000     0.684000000
H    -2.013000000    -0.745000000     1.093000000
C    -0.420000000     0.068000000    -0.031000000
H    -0.042000000    -0.954000000    -0.136000000
C     0.126000000     1.163000000    -0.588000000
H     1.100000000     1.115000000    -1.070000000
C    -0.414000000     2.455000000    -0.423000000
H     0.119000000     3.364000000    -0.689000000
C    -1.630000000     2.546000000     0.224000000
C    -2.302000000     3.913000000     0.447000000
O    -1.767000000     4.931000000     0.115000000
O    -3.201000000     3.951000000     1.296000000
