14
-86.01152
C    -0.466000000     0.277000000     2.528000000
H    -0.764000000     0.041000000     3.546000000
C    -0.509000000    -0.682000000     1.494000000
H    -0.829000000    -1.708000000     1.657000000
C    -0.204000000    -0.248000000     0.201000000
H    -0.194000000    -0.893000000    -0.663000000
C     0.248000000     1.061000000    -0.048000000
H     0.633000000     1.438000000    -0.992000000
C     0.358000000     1.990000000     0.970000000
H     0.692000000     3.010000000     0.797000000
C    -0.040000000     1.588000000     2.255000000
C    -0.007000000     2.524000000     3.390000000
O     0.091000000     3.729000000     3.242000000
O    -0.407000000     2.149000000     4.494000000
