14
-82.85870
C     0.471000000     0.760000000     2.472000000
H     0.490000000     0.558000000     3.540000000
C     0.229000000    -0.295000000     1.618000000
H     0.111000000    -1.299000000     2.018000000
C     0.365000000    -0.117000000     0.235000000
H     0.176000000    -0.987000000    -0.423000000
C     0.619000000     1.113000000    -0.281000000
H     0.602000000     1.161000000    -1.367000000
C     0.931000000     2.172000000     0.577000000
H     1.348000000     3.100000000     0.196000000
C     0.775000000     2.026000000     2.002000000
C     1.261000000     3.141000000     2.977000000
O     1.394000000     4.259000000     2.636000000
O     1.370000000     2.874000000     4.167000000
