14
-77.98412
C    -0.650000000     1.013000000     2.630000000
H    -1.026000000     0.674000000     3.592000000
C    -0.300000000     0.108000000     1.673000000
H    -0.373000000    -0.952000000     1.904000000
C     0.197000000     0.533000000     0.427000000
H     0.574000000    -0.213000000    -0.282000000
C     0.178000000     1.907000000     0.172000000
H     0.764000000     2.300000000    -0.654000000
C    -0.312000000     2.899000000     1.076000000
H    -0.227000000     3.942000000     0.783000000
C    -0.596000000     2.426000000     2.401000000
C    -0.672000000     3.462000000     3.568000000
O    -0.173000000     4.550000000     3.346000000
O    -0.747000000     3.103000000     4.711000000
