14
-86.43662
C    -2.454000000     0.315000000     0.975000000
H    -3.463000000     0.191000000     1.362000000
C    -1.578000000    -0.789000000     0.882000000
H    -1.991000000    -1.717000000     1.269000000
C    -0.354000000    -0.763000000     0.242000000
H     0.262000000    -1.631000000     0.238000000
C     0.121000000     0.416000000    -0.243000000
H     1.082000000     0.402000000    -0.751000000
C    -0.664000000     1.615000000    -0.063000000
H    -0.277000000     2.481000000    -0.593000000
C    -1.958000000     1.542000000     0.539000000
C    -2.776000000     2.793000000     0.712000000
O    -2.343000000     3.872000000     0.288000000
O    -3.833000000     2.839000000     1.334000000
