14
-80.17742
C    -1.057000000     1.557000000     2.031000000
H    -1.507000000     1.353000000     2.999000000
C    -0.992000000     0.621000000     0.981000000
H    -1.502000000    -0.331000000     1.108000000
C    -0.277000000     0.915000000    -0.140000000
H    -0.229000000     0.218000000    -0.979000000
C     0.419000000     2.075000000    -0.276000000
H     0.989000000     2.299000000    -1.174000000
C     0.479000000     2.932000000     0.837000000
H     1.123000000     3.808000000     0.844000000
C    -0.298000000     2.700000000     1.950000000
C    -0.229000000     3.718000000     3.043000000
O     0.650000000     4.507000000     3.073000000
O    -1.098000000     3.775000000     3.843000000
