14
-90.03700
C    -0.864000000     0.086000000     2.499000000
H    -1.205000000    -0.278000000     3.465000000
C    -0.506000000    -0.901000000     1.606000000
H    -0.409000000    -1.933000000     1.933000000
C    -0.067000000    -0.533000000     0.333000000
H     0.178000000    -1.345000000    -0.291000000
C    -0.091000000     0.745000000    -0.056000000
H     0.309000000     1.040000000    -1.023000000
C    -0.554000000     1.775000000     0.823000000
H    -0.690000000     2.786000000     0.447000000
C    -0.925000000     1.409000000     2.114000000
C    -1.365000000     2.554000000     3.042000000
O    -1.867000000     3.548000000     2.572000000
O    -1.342000000     2.321000000     4.290000000
