14
-89.38533
C    -0.076000000    -0.041000000     2.109000000
H    -0.116000000    -0.466000000     3.109000000
C    -0.079000000    -0.814000000     1.014000000
H    -0.219000000    -1.885000000     1.131000000
C     0.075000000    -0.261000000    -0.312000000
H     0.069000000    -0.877000000    -1.225000000
C     0.051000000     1.089000000    -0.506000000
H     0.144000000     1.605000000    -1.458000000
C     0.078000000     1.940000000     0.679000000
H     0.185000000     3.019000000     0.605000000
C     0.091000000     1.356000000     1.984000000
C    -0.063000000     2.307000000     3.155000000
O    -0.412000000     3.476000000     2.957000000
O     0.139000000     1.873000000     4.299000000
