14
-92.46116
C    -0.495000000     0.382000000     2.446000000
H    -0.602000000    -0.263000000     3.314000000
C    -0.297000000    -0.264000000     1.187000000
H    -0.179000000    -1.342000000     1.117000000
C    -0.146000000     0.548000000     0.055000000
H     0.144000000     0.121000000    -0.912000000
C    -0.332000000     1.949000000     0.214000000
H    -0.244000000     2.600000000    -0.652000000
C    -0.689000000     2.493000000     1.431000000
H    -0.726000000     3.579000000     1.431000000
C    -0.707000000     1.722000000     2.576000000
C    -0.832000000     2.397000000     3.931000000
O    -1.174000000     3.577000000     3.962000000
O    -0.417000000     1.782000000     4.915000000
