14
-89.01168
C    -0.616000000     0.015000000     1.761000000
H    -0.911000000    -0.809000000     2.406000000
C    -0.282000000    -0.292000000     0.422000000
H    -0.400000000    -1.306000000     0.046000000
C     0.077000000     0.781000000    -0.440000000
H     0.194000000     0.682000000    -1.536000000
C     0.048000000     2.088000000     0.028000000
H     0.301000000     2.879000000    -0.674000000
C    -0.330000000     2.350000000     1.330000000
H    -0.381000000     3.374000000     1.691000000
C    -0.675000000     1.339000000     2.238000000
C    -0.886000000     1.584000000     3.685000000
O    -1.076000000     2.721000000     4.035000000
O    -0.656000000     0.698000000     4.504000000
