14
-88.96546
C    -0.658000000     0.300000000     2.303000000
H    -0.839000000    -0.225000000     3.238000000
C    -0.430000000    -0.387000000     1.121000000
H    -0.367000000    -1.472000000     1.111000000
C    -0.272000000     0.283000000    -0.082000000
H    -0.212000000    -0.277000000    -0.989000000
C    -0.262000000     1.714000000    -0.060000000
H    -0.074000000     2.211000000    -1.008000000
C    -0.416000000     2.422000000     1.089000000
H    -0.293000000     3.501000000     1.121000000
C    -0.681000000     1.764000000     2.297000000
C    -0.990000000     2.575000000     3.528000000
O    -0.980000000     3.797000000     3.533000000
O    -0.964000000     1.940000000     4.574000000
