14
-83.66021
C    -0.850000000     0.343000000     1.891000000
H    -0.699000000    -0.264000000     2.780000000
C    -0.215000000     0.052000000     0.699000000
H     0.299000000    -0.904000000     0.644000000
C    -0.439000000     0.763000000    -0.469000000
H    -0.110000000     0.373000000    -1.428000000
C    -1.119000000     1.980000000    -0.317000000
H    -1.463000000     2.528000000    -1.190000000
C    -1.638000000     2.394000000     0.901000000
H    -2.291000000     3.263000000     0.873000000
C    -1.578000000     1.551000000     2.009000000
C    -2.201000000     1.946000000     3.263000000
O    -2.922000000     2.895000000     3.310000000
O    -1.860000000     1.390000000     4.303000000
