14
-83.26626
C    -2.810000000     0.320000000     0.116000000
H    -3.804000000    -0.113000000     0.195000000
C    -1.690000000    -0.507000000     0.274000000
H    -1.814000000    -1.573000000     0.442000000
C    -0.426000000     0.017000000     0.018000000
H     0.464000000    -0.588000000     0.067000000
C    -0.357000000     1.316000000    -0.595000000
H     0.641000000     1.613000000    -0.908000000
C    -1.426000000     2.187000000    -0.654000000
H    -1.326000000     3.127000000    -1.190000000
C    -2.630000000     1.719000000    -0.196000000
C    -3.916000000     2.643000000    -0.094000000
O    -3.961000000     3.807000000    -0.540000000
O    -4.863000000     2.213000000     0.481000000
