14
-76.36926
C    -1.260000000    -0.151000000     2.776000000
H    -1.352000000    -0.351000000     3.840000000
C    -0.262000000    -0.929000000     2.156000000
H     0.399000000    -1.581000000     2.723000000
C    -0.165000000    -0.811000000     0.778000000
H     0.569000000    -1.549000000     0.298000000
C    -0.795000000     0.145000000     0.043000000
H    -0.593000000     0.164000000    -1.025000000
C    -1.676000000     0.992000000     0.694000000
H    -2.248000000     1.742000000     0.153000000
C    -1.934000000     0.899000000     2.083000000
C    -2.871000000     1.971000000     2.646000000
O    -3.125000000     2.989000000     2.060000000
O    -3.136000000     1.956000000     3.807000000
