14
-87.72270
C    -1.026000000    -0.110000000     1.995000000
H    -1.402000000    -0.194000000     3.012000000
C    -0.108000000    -0.991000000     1.510000000
H     0.249000000    -1.802000000     2.139000000
C     0.305000000    -0.864000000     0.249000000
H     0.937000000    -1.662000000    -0.166000000
C     0.002000000     0.229000000    -0.586000000
H     0.390000000     0.267000000    -1.600000000
C    -0.772000000     1.259000000    -0.030000000
H    -0.975000000     2.179000000    -0.572000000
C    -1.314000000     1.094000000     1.307000000
C    -2.229000000     2.127000000     1.886000000
O    -2.047000000     3.293000000     1.625000000
O    -3.007000000     1.701000000     2.734000000
