14
-83.78858
C    -1.079000000     0.057000000     2.014000000
H    -1.298000000    -0.648000000     2.811000000
C    -0.344000000    -0.325000000     0.883000000
H    -0.038000000    -1.362000000     0.771000000
C    -0.120000000     0.534000000    -0.201000000
H     0.314000000     0.134000000    -1.076000000
C    -0.577000000     1.809000000    -0.177000000
H    -0.422000000     2.486000000    -1.013000000
C    -1.319000000     2.230000000     0.930000000
H    -1.697000000     3.248000000     0.876000000
C    -1.594000000     1.314000000     2.044000000
C    -2.562000000     1.707000000     3.109000000
O    -3.186000000     2.755000000     3.067000000
O    -2.500000000     1.125000000     4.191000000
