14
-91.67703
C    -1.274000000    -0.632000000     2.323000000
H    -1.075000000    -1.443000000     3.019000000
C    -0.317000000    -0.481000000     1.358000000
H     0.525000000    -1.164000000     1.281000000
C    -0.352000000     0.574000000     0.434000000
H     0.408000000     0.678000000    -0.374000000
C    -1.405000000     1.445000000     0.592000000
H    -1.545000000     2.359000000     0.020000000
C    -2.417000000     1.288000000     1.551000000
H    -3.330000000     1.875000000     1.615000000
C    -2.313000000     0.256000000     2.457000000
C    -3.363000000     0.029000000     3.614000000
O    -4.372000000     0.748000000     3.577000000
O    -3.128000000    -0.814000000     4.438000000
