14
-86.86186
C    -2.535000000    -0.304000000     0.689000000
H    -3.364000000    -0.753000000     1.230000000
C    -1.282000000    -0.831000000     0.856000000
H    -1.146000000    -1.772000000     1.383000000
C    -0.182000000    -0.119000000     0.347000000
H     0.783000000    -0.471000000     0.489000000
C    -0.297000000     1.063000000    -0.345000000
H     0.553000000     1.503000000    -0.860000000
C    -1.601000000     1.663000000    -0.435000000
H    -1.721000000     2.597000000    -0.978000000
C    -2.696000000     1.005000000     0.071000000
C    -4.095000000     1.700000000     0.029000000
O    -4.213000000     2.661000000    -0.668000000
O    -4.923000000     1.380000000     0.844000000
