14
-84.99065
C    -0.042000000    -0.718000000     1.807000000
H     0.551000000    -1.199000000     2.581000000
C     0.424000000    -0.632000000     0.476000000
H     1.366000000    -1.088000000     0.184000000
C    -0.370000000     0.120000000    -0.390000000
H    -0.143000000     0.061000000    -1.441000000
C    -1.584000000     0.684000000    -0.047000000
H    -2.221000000     1.199000000    -0.761000000
C    -2.101000000     0.598000000     1.210000000
H    -3.041000000     1.015000000     1.562000000
C    -1.348000000    -0.106000000     2.142000000
C    -1.827000000    -0.266000000     3.580000000
O    -2.963000000     0.113000000     3.890000000
O    -1.130000000    -0.697000000     4.484000000
