14
-89.19385
C    -2.051000000     1.353000000     2.710000000
H    -2.750000000     0.955000000     3.442000000
C    -1.161000000     0.543000000     2.067000000
H    -0.997000000    -0.495000000     2.346000000
C    -0.394000000     1.052000000     1.045000000
H     0.318000000     0.461000000     0.457000000
C    -0.513000000     2.335000000     0.657000000
H     0.010000000     2.722000000    -0.214000000
C    -1.394000000     3.175000000     1.272000000
H    -1.472000000     4.222000000     0.992000000
C    -2.180000000     2.697000000     2.357000000
C    -2.968000000     3.651000000     3.246000000
O    -3.055000000     4.780000000     2.825000000
O    -3.661000000     3.163000000     4.170000000
