14
-87.80738
C    -1.778000000     0.436000000     1.280000000
H    -2.546000000     0.306000000     2.038000000
C    -1.160000000    -0.644000000     0.714000000
H    -1.578000000    -1.634000000     0.883000000
C    -0.066000000    -0.489000000    -0.134000000
H     0.416000000    -1.347000000    -0.594000000
C     0.380000000     0.814000000    -0.386000000
H     1.375000000     0.921000000    -0.810000000
C    -0.315000000     1.911000000     0.124000000
H     0.041000000     2.900000000    -0.155000000
C    -1.471000000     1.750000000     0.945000000
C    -2.173000000     2.883000000     1.701000000
O    -1.885000000     4.060000000     1.490000000
O    -3.118000000     2.685000000     2.465000000
