14
-80.81688
C    -2.638000000     1.780000000     1.072000000
H    -3.634000000     1.819000000     1.504000000
C    -2.199000000     0.589000000     0.569000000
H    -2.856000000    -0.275000000     0.507000000
C    -0.894000000     0.623000000     0.011000000
H    -0.525000000    -0.230000000    -0.459000000
C    -0.140000000     1.773000000    -0.116000000
H     0.889000000     1.670000000    -0.452000000
C    -0.636000000     2.972000000     0.327000000
H     0.077000000     3.792000000     0.354000000
C    -1.864000000     2.957000000     0.943000000
C    -2.485000000     4.217000000     1.523000000
O    -1.793000000     5.211000000     1.676000000
O    -3.612000000     4.317000000     1.953000000
