14
-82.78615
C    -2.020000000     1.602000000     2.182000000
H    -2.786000000     1.017000000     2.684000000
C    -1.116000000     0.887000000     1.427000000
H    -1.095000000    -0.185000000     1.249000000
C    -0.223000000     1.629000000     0.733000000
H     0.525000000     1.161000000     0.173000000
C    -0.159000000     3.000000000     0.739000000
H     0.594000000     3.489000000     0.127000000
C    -0.959000000     3.717000000     1.616000000
H    -0.862000000     4.791000000     1.756000000
C    -1.972000000     3.020000000     2.309000000
C    -2.965000000     3.631000000     3.276000000
O    -3.024000000     4.872000000     3.267000000
O    -3.776000000     3.073000000     3.995000000
