14
-91.50947
C    -2.001000000     0.885000000     1.373000000
H    -2.975000000     0.862000000     1.854000000
C    -1.482000000    -0.259000000     0.846000000
H    -2.067000000    -1.160000000     1.016000000
C    -0.362000000    -0.197000000     0.054000000
H    -0.012000000    -1.093000000    -0.398000000
C     0.270000000     1.018000000    -0.218000000
H     1.215000000     1.030000000    -0.755000000
C    -0.281000000     2.194000000     0.267000000
H     0.108000000     3.186000000     0.049000000
C    -1.408000000     2.158000000     1.096000000
C    -2.034000000     3.400000000     1.607000000
O    -1.551000000     4.482000000     1.221000000
O    -2.830000000     3.358000000     2.560000000
