14
-84.50784
C    -2.417000000     1.025000000     1.500000000
H    -3.492000000     0.982000000     1.655000000
C    -1.762000000    -0.059000000     0.852000000
H    -2.321000000    -0.853000000     0.363000000
C    -0.396000000     0.001000000     0.603000000
H     0.039000000    -0.795000000     0.011000000
C     0.332000000     1.072000000     1.100000000
H     1.414000000     1.048000000     0.999000000
C    -0.293000000     2.097000000     1.866000000
H     0.251000000     2.910000000     2.340000000
C    -1.689000000     2.009000000     2.094000000
C    -2.360000000     3.052000000     2.883000000
O    -1.771000000     3.777000000     3.695000000
O    -3.573000000     2.974000000     3.028000000
