14
-82.81452
C    -1.755000000     0.818000000     1.811000000
H    -2.625000000     0.268000000     2.161000000
C    -0.977000000     0.146000000     0.893000000
H    -1.147000000    -0.890000000     0.612000000
C     0.109000000     0.747000000     0.316000000
H     0.749000000     0.118000000    -0.342000000
C     0.577000000     2.015000000     0.665000000
H     1.454000000     2.439000000     0.183000000
C    -0.254000000     2.687000000     1.566000000
H    -0.115000000     3.723000000     1.866000000
C    -1.398000000     2.090000000     2.206000000
C    -2.212000000     2.857000000     3.301000000
O    -1.988000000     3.999000000     3.554000000
O    -3.186000000     2.348000000     3.817000000
