14
-88.98851
C    -1.944000000    -0.097000000     1.871000000
H    -2.855000000    -0.483000000     2.322000000
C    -1.182000000    -0.924000000     1.032000000
H    -1.392000000    -1.976000000     0.854000000
C    -0.059000000    -0.386000000     0.416000000
H     0.629000000    -1.004000000    -0.153000000
C     0.246000000     0.958000000     0.526000000
H     0.984000000     1.379000000    -0.153000000
C    -0.481000000     1.768000000     1.389000000
H    -0.242000000     2.825000000     1.482000000
C    -1.581000000     1.256000000     2.095000000
C    -2.431000000     2.131000000     2.980000000
O    -2.176000000     3.287000000     3.126000000
O    -3.436000000     1.658000000     3.446000000
