14
-93.04420
C    -1.742000000     0.349000000     2.250000000
H    -2.507000000    -0.166000000     2.826000000
C    -0.845000000    -0.332000000     1.451000000
H    -0.963000000    -1.413000000     1.427000000
C     0.076000000     0.451000000     0.735000000
H     0.766000000    -0.045000000     0.096000000
C     0.070000000     1.830000000     0.854000000
H     0.758000000     2.421000000     0.255000000
C    -0.827000000     2.433000000     1.711000000
H    -0.782000000     3.500000000     1.915000000
C    -1.842000000     1.722000000     2.335000000
C    -2.847000000     2.386000000     3.272000000
O    -2.880000000     3.625000000     3.337000000
O    -3.572000000     1.686000000     3.989000000
