14
-89.21974
C    -1.816000000     0.283000000     1.039000000
H    -2.761000000    -0.145000000     1.364000000
C    -0.853000000    -0.531000000     0.388000000
H    -1.109000000    -1.500000000    -0.033000000
C     0.398000000    -0.032000000     0.162000000
H     1.113000000    -0.623000000    -0.442000000
C     0.658000000     1.317000000     0.463000000
H     1.630000000     1.737000000     0.220000000
C    -0.235000000     2.132000000     1.165000000
H     0.071000000     3.116000000     1.509000000
C    -1.517000000     1.650000000     1.398000000
C    -2.469000000     2.554000000     2.159000000
O    -1.952000000     3.350000000     2.956000000
O    -3.672000000     2.380000000     2.150000000
