14
-91.23633
C    -1.532000000    -0.215000000     3.100000000
H    -1.981000000    -0.486000000     4.053000000
C    -1.066000000    -1.161000000     2.167000000
H    -1.077000000    -2.174000000     2.563000000
C    -0.825000000    -0.767000000     0.874000000
H    -0.512000000    -1.534000000     0.143000000
C    -0.897000000     0.590000000     0.501000000
H    -0.610000000     0.939000000    -0.487000000
C    -1.160000000     1.549000000     1.511000000
H    -1.165000000     2.606000000     1.256000000
C    -1.577000000     1.137000000     2.783000000
C    -1.961000000     2.128000000     3.896000000
O    -1.628000000     3.314000000     3.730000000
O    -2.490000000     1.783000000     4.926000000
