14
-91.59690
C    -1.491000000     0.052000000     1.400000000
H    -2.217000000    -0.502000000     1.989000000
C    -1.013000000    -0.554000000     0.245000000
H    -1.358000000    -1.498000000    -0.169000000
C    -0.047000000     0.110000000    -0.490000000
H     0.470000000    -0.444000000    -1.263000000
C     0.410000000     1.408000000    -0.143000000
H     1.170000000     1.903000000    -0.742000000
C    -0.156000000     2.005000000     0.991000000
H     0.182000000     2.999000000     1.274000000
C    -1.091000000     1.366000000     1.770000000
C    -1.679000000     1.999000000     2.966000000
O    -1.109000000     2.998000000     3.521000000
O    -2.741000000     1.603000000     3.441000000
