14
-92.63704
C     0.445000000    -0.544000000     2.267000000
H     0.643000000    -0.904000000     3.273000000
C     0.674000000    -1.262000000     1.107000000
H     1.151000000    -2.238000000     1.124000000
C     0.410000000    -0.707000000    -0.144000000
H     0.685000000    -1.275000000    -1.059000000
C    -0.235000000     0.498000000    -0.199000000
H    -0.444000000     0.937000000    -1.172000000
C    -0.607000000     1.186000000     0.980000000
H    -1.182000000     2.104000000     0.884000000
C    -0.193000000     0.728000000     2.194000000
C    -0.530000000     1.553000000     3.391000000
O    -1.016000000     2.669000000     3.320000000
O    -0.356000000     0.997000000     4.485000000
