14
-78.26931
C     1.062000000     0.863000000     2.154000000
H     1.546000000     0.168000000     2.836000000
C     0.847000000     0.400000000     0.855000000
H     1.164000000    -0.631000000     0.729000000
C     0.074000000     1.068000000    -0.081000000
H    -0.120000000     0.577000000    -1.044000000
C    -0.447000000     2.267000000     0.301000000
H    -1.131000000     2.849000000    -0.312000000
C    -0.273000000     2.784000000     1.582000000
H    -0.780000000     3.686000000     1.917000000
C     0.522000000     2.104000000     2.546000000
C     0.821000000     2.810000000     3.825000000
O     0.186000000     3.755000000     4.244000000
O     1.559000000     2.302000000     4.608000000
