14
-82.28413
C     1.488000000     0.202000000     2.236000000
H     2.254000000    -0.137000000     2.929000000
C     1.219000000    -0.597000000     1.114000000
H     1.747000000    -1.547000000     1.097000000
C     0.319000000    -0.228000000     0.147000000
H    -0.045000000    -0.955000000    -0.615000000
C    -0.383000000     0.942000000     0.345000000
H    -1.127000000     1.310000000    -0.356000000
C    -0.163000000     1.781000000     1.434000000
H    -0.664000000     2.746000000     1.428000000
C     0.641000000     1.322000000     2.452000000
C     0.771000000     2.195000000     3.700000000
O     0.236000000     3.295000000     3.677000000
O     1.101000000     1.690000000     4.717000000
