14
-81.25747
C     1.477000000     1.064000000     2.628000000
H     2.290000000     0.715000000     3.260000000
C     1.145000000     0.294000000     1.518000000
H     1.812000000    -0.514000000     1.228000000
C     0.112000000     0.660000000     0.654000000
H    -0.135000000     0.136000000    -0.256000000
C    -0.636000000     1.735000000     0.943000000
H    -1.575000000     1.944000000     0.436000000
C    -0.474000000     2.342000000     2.185000000
H    -1.200000000     3.106000000     2.452000000
C     0.613000000     2.061000000     3.005000000
C     0.792000000     2.717000000     4.398000000
O    -0.027000000     3.513000000     4.872000000
O     1.549000000     2.177000000     5.165000000
