14
-80.70385
C     2.001000000     0.130000000     2.411000000
H     2.649000000    -0.186000000     3.225000000
C     1.686000000    -0.707000000     1.291000000
H     2.172000000    -1.662000000     1.108000000
C     0.757000000    -0.360000000     0.363000000
H     0.610000000    -1.030000000    -0.497000000
C     0.001000000     0.773000000     0.515000000
H    -0.818000000     0.955000000    -0.176000000
C     0.358000000     1.643000000     1.568000000
H    -0.249000000     2.544000000     1.532000000
C     1.442000000     1.410000000     2.431000000
C     1.662000000     2.328000000     3.576000000
O     0.942000000     3.328000000     3.695000000
O     2.551000000     2.184000000     4.343000000
