14
-83.95751
C    -1.665000000    -0.339000000     0.051000000
H    -2.570000000    -0.940000000     0.065000000
C    -0.336000000    -0.798000000     0.121000000
H    -0.038000000    -1.838000000     0.230000000
C     0.761000000     0.005000000    -0.117000000
H     1.858000000    -0.295000000    -0.211000000
C     0.506000000     1.387000000    -0.060000000
H     1.298000000     2.127000000    -0.131000000
C    -0.816000000     1.844000000    -0.093000000
H    -1.047000000     2.903000000    -0.014000000
C    -1.919000000     1.027000000    -0.115000000
C    -3.287000000     1.632000000    -0.320000000
O    -3.388000000     2.719000000    -0.869000000
O    -4.237000000     1.162000000     0.293000000
