14
-78.00291
C     0.480000000    -0.318000000     1.826000000
H     0.937000000    -0.544000000     2.786000000
C     0.966000000    -0.895000000     0.670000000
H     1.656000000    -1.732000000     0.728000000
C     0.438000000    -0.576000000    -0.565000000
H     0.826000000    -0.996000000    -1.521000000
C    -0.581000000     0.449000000    -0.513000000
H    -0.953000000     0.733000000    -1.494000000
C    -1.001000000     1.067000000     0.639000000
H    -1.786000000     1.817000000     0.601000000
C    -0.422000000     0.714000000     1.847000000
C    -0.811000000     1.377000000     3.183000000
O    -1.363000000     2.407000000     3.195000000
O    -0.523000000     0.738000000     4.110000000
