14
-86.22378
C     1.241000000     0.587000000     2.972000000
H     1.758000000     0.062000000     3.771000000
C     0.850000000    -0.172000000     1.872000000
H     1.024000000    -1.245000000     1.856000000
C     0.086000000     0.470000000     0.829000000
H    -0.168000000    -0.047000000    -0.124000000
C    -0.229000000     1.866000000     0.931000000
H    -0.754000000     2.394000000     0.139000000
C     0.167000000     2.620000000     2.056000000
H    -0.171000000     3.637000000     2.238000000
C     0.853000000     1.934000000     3.107000000
C     1.064000000     2.652000000     4.401000000
O     0.869000000     3.847000000     4.556000000
O     1.466000000     2.039000000     5.379000000
