14
-83.09089
C     0.826000000     0.282000000     2.358000000
H     1.299000000    -0.326000000     3.125000000
C     0.508000000    -0.414000000     1.212000000
H     0.591000000    -1.498000000     1.223000000
C    -0.118000000     0.316000000     0.264000000
H    -0.525000000    -0.118000000    -0.643000000
C    -0.351000000     1.645000000     0.380000000
H    -0.933000000     2.177000000    -0.368000000
C     0.086000000     2.410000000     1.469000000
H    -0.081000000     3.482000000     1.400000000
C     0.634000000     1.700000000     2.553000000
C     1.026000000     2.383000000     3.816000000
O     0.965000000     3.596000000     3.814000000
O     1.312000000     1.748000000     4.795000000
