14
-87.55299
C     0.416000000    -0.002000000     2.049000000
H     0.699000000    -0.145000000     3.089000000
C     0.595000000    -0.955000000     1.060000000
H     1.000000000    -1.921000000     1.349000000
C     0.346000000    -0.627000000    -0.271000000
H     0.645000000    -1.300000000    -1.066000000
C    -0.076000000     0.681000000    -0.650000000
H    -0.153000000     0.837000000    -1.722000000
C    -0.347000000     1.636000000     0.381000000
H    -0.674000000     2.649000000     0.161000000
C    -0.120000000     1.270000000     1.675000000
C    -0.404000000     2.254000000     2.784000000
O    -0.727000000     3.369000000     2.463000000
O    -0.404000000     1.930000000     3.941000000
