14
-85.43565
C    -0.043000000     0.075000000     2.163000000
H     0.149000000    -0.240000000     3.186000000
C     0.623000000    -0.615000000     1.169000000
H     1.304000000    -1.434000000     1.387000000
C     0.244000000    -0.426000000    -0.168000000
H     0.653000000    -1.032000000    -1.017000000
C    -0.635000000     0.643000000    -0.531000000
H    -1.020000000     0.820000000    -1.532000000
C    -0.962000000     1.552000000     0.489000000
H    -1.470000000     2.484000000     0.254000000
C    -0.777000000     1.258000000     1.887000000
C    -1.404000000     2.096000000     3.004000000
O    -1.941000000     3.179000000     2.783000000
O    -1.271000000     1.667000000     4.102000000
