14
-83.43172
C     0.757000000     0.719000000     2.635000000
H     1.374000000     0.728000000     3.529000000
C     1.181000000    -0.049000000     1.574000000
H     2.074000000    -0.660000000     1.674000000
C     0.496000000     0.056000000     0.384000000
H     0.761000000    -0.601000000    -0.500000000
C    -0.634000000     0.913000000     0.230000000
H    -1.058000000     1.045000000    -0.762000000
C    -1.042000000     1.598000000     1.319000000
H    -1.785000000     2.389000000     1.378000000
C    -0.297000000     1.598000000     2.537000000
C    -0.809000000     2.549000000     3.691000000
O    -1.782000000     3.267000000     3.612000000
O    -0.247000000     2.522000000     4.782000000
