14
-80.64115
C     0.729000000    -0.485000000     1.990000000
H     1.107000000    -1.394000000     2.449000000
C     0.721000000    -0.470000000     0.554000000
H     0.805000000    -1.373000000    -0.045000000
C     0.183000000     0.633000000    -0.155000000
H     0.145000000     0.731000000    -1.219000000
C    -0.281000000     1.712000000     0.584000000
H    -0.671000000     2.581000000     0.059000000
C    -0.245000000     1.740000000     1.972000000
H    -0.484000000     2.632000000     2.545000000
C     0.236000000     0.626000000     2.691000000
C     0.231000000     0.740000000     4.208000000
O    -0.101000000     1.772000000     4.700000000
O     0.445000000    -0.181000000     4.924000000
