14
-85.18569
C     1.081000000     0.481000000     2.728000000
H     1.699000000    -0.005000000     3.479000000
C     0.723000000    -0.163000000     1.503000000
H     1.025000000    -1.191000000     1.315000000
C    -0.076000000     0.539000000     0.572000000
H    -0.414000000     0.107000000    -0.322000000
C    -0.385000000     1.854000000     0.789000000
H    -0.816000000     2.443000000    -0.017000000
C    -0.003000000     2.501000000     1.950000000
H    -0.123000000     3.578000000     2.028000000
C     0.736000000     1.826000000     2.957000000
C     1.176000000     2.554000000     4.202000000
O     0.901000000     3.706000000     4.429000000
O     1.910000000     1.998000000     4.964000000
