14
-85.69463
C    -2.433000000    -0.075000000    -0.413000000
H    -3.285000000    -0.748000000    -0.444000000
C    -1.175000000    -0.670000000    -0.140000000
H    -1.056000000    -1.751000000    -0.149000000
C    -0.089000000     0.131000000     0.017000000
H     0.876000000    -0.326000000     0.127000000
C    -0.294000000     1.544000000    -0.119000000
H     0.553000000     2.197000000     0.076000000
C    -1.516000000     2.070000000    -0.409000000
H    -1.678000000     3.138000000    -0.524000000
C    -2.632000000     1.253000000    -0.574000000
C    -3.972000000     1.785000000    -0.901000000
O    -4.149000000     2.947000000    -0.669000000
O    -4.828000000     1.136000000    -1.466000000
