14
-91.29645
C     0.215000000    -0.172000000     2.116000000
H     0.453000000    -0.392000000     3.154000000
C     1.064000000    -0.551000000     1.107000000
H     1.984000000    -1.097000000     1.302000000
C     0.617000000    -0.440000000    -0.207000000
H     1.222000000    -0.872000000    -0.966000000
C    -0.460000000     0.375000000    -0.576000000
H    -0.769000000     0.515000000    -1.609000000
C    -1.233000000     0.907000000     0.453000000
H    -2.092000000     1.516000000     0.184000000
C    -0.991000000     0.568000000     1.797000000
C    -1.973000000     1.053000000     2.821000000
O    -3.063000000     1.567000000     2.398000000
O    -1.663000000     1.083000000     4.010000000
