14
-83.77152
C     0.290000000    -0.642000000     2.250000000
H     0.635000000    -0.967000000     3.228000000
C     0.980000000    -1.101000000     1.133000000
H     1.859000000    -1.716000000     1.311000000
C     0.567000000    -0.692000000    -0.143000000
H     1.159000000    -0.999000000    -1.022000000
C    -0.461000000     0.230000000    -0.347000000
H    -0.732000000     0.552000000    -1.349000000
C    -1.274000000     0.623000000     0.804000000
H    -2.152000000     1.257000000     0.705000000
C    -0.892000000     0.137000000     2.083000000
C    -1.694000000     0.553000000     3.277000000
O    -2.571000000     1.350000000     3.147000000
O    -1.572000000     0.022000000     4.355000000
