14
-85.88115
C     0.408000000    -0.033000000     2.497000000
H     0.899000000     0.002000000     3.466000000
C     1.157000000    -0.574000000     1.481000000
H     2.172000000    -0.957000000     1.560000000
C     0.639000000    -0.342000000     0.172000000
H     1.157000000    -0.704000000    -0.691000000
C    -0.674000000     0.079000000     0.002000000
H    -1.096000000     0.131000000    -0.999000000
C    -1.357000000     0.710000000     1.079000000
H    -2.291000000     1.231000000     0.887000000
C    -0.807000000     0.652000000     2.320000000
C    -1.360000000     1.361000000     3.561000000
O    -2.360000000     2.112000000     3.447000000
O    -0.859000000     1.233000000     4.638000000
