14
-87.23181
C    -1.717000000     0.005000000    -0.120000000
H    -2.523000000    -0.719000000    -0.034000000
C    -0.384000000    -0.475000000    -0.216000000
H    -0.234000000    -1.540000000    -0.058000000
C     0.605000000     0.422000000    -0.478000000
H     1.603000000     0.072000000    -0.436000000
C     0.352000000     1.813000000    -0.528000000
H     1.156000000     2.534000000    -0.655000000
C    -0.962000000     2.262000000    -0.565000000
H    -1.241000000     3.303000000    -0.707000000
C    -2.036000000     1.334000000    -0.418000000
C    -3.453000000     1.711000000    -0.701000000
O    -3.839000000     2.916000000    -0.854000000
O    -4.333000000     0.874000000    -0.530000000
