14
-78.38707
C     0.181000000     0.665000000     2.841000000
H     0.635000000     0.254000000     3.740000000
C     0.558000000     0.136000000     1.617000000
H     1.421000000    -0.519000000     1.529000000
C    -0.068000000     0.609000000     0.426000000
H     0.312000000     0.220000000    -0.493000000
C    -1.046000000     1.617000000     0.433000000
H    -1.411000000     1.933000000    -0.541000000
C    -1.448000000     2.041000000     1.690000000
H    -2.295000000     2.709000000     1.823000000
C    -0.840000000     1.565000000     2.902000000
C    -1.417000000     1.878000000     4.271000000
O    -2.282000000     2.649000000     4.399000000
O    -0.827000000     1.537000000     5.294000000
