14
-93.73900
C     0.282000000    -0.321000000     1.971000000
H     0.532000000    -0.730000000     2.947000000
C     0.968000000    -0.779000000     0.860000000
H     1.661000000    -1.611000000     0.956000000
C     0.662000000    -0.322000000    -0.387000000
H     1.167000000    -0.676000000    -1.327000000
C    -0.394000000     0.568000000    -0.587000000
H    -0.648000000     0.801000000    -1.618000000
C    -1.013000000     1.110000000     0.558000000
H    -1.790000000     1.852000000     0.390000000
C    -0.724000000     0.634000000     1.818000000
C    -1.371000000     1.177000000     3.082000000
O    -2.330000000     1.911000000     2.852000000
O    -0.987000000     0.815000000     4.210000000
