14
-83.47278
C     0.313000000    -0.456000000     2.659000000
H     0.736000000    -0.805000000     3.598000000
C     0.915000000    -0.728000000     1.402000000
H     1.841000000    -1.288000000     1.309000000
C     0.220000000    -0.458000000     0.216000000
H     0.788000000    -0.856000000    -0.568000000
C    -1.000000000     0.129000000     0.152000000
H    -1.626000000     0.406000000    -0.692000000
C    -1.565000000     0.427000000     1.402000000
H    -2.527000000     0.927000000     1.485000000
C    -0.931000000     0.159000000     2.632000000
C    -1.660000000     0.474000000     3.958000000
O    -2.805000000     0.784000000     3.981000000
O    -1.014000000     0.395000000     4.983000000
