14
-83.24295
C    -2.440000000    -0.448000000    -0.097000000
H    -3.300000000    -1.110000000    -0.155000000
C    -1.172000000    -0.892000000     0.112000000
H    -1.013000000    -1.967000000     0.103000000
C    -0.116000000     0.003000000     0.309000000
H     0.881000000    -0.390000000     0.562000000
C    -0.321000000     1.390000000     0.306000000
H     0.479000000     2.102000000     0.494000000
C    -1.618000000     1.834000000     0.035000000
H    -1.794000000     2.904000000    -0.044000000
C    -2.704000000     0.963000000    -0.177000000
C    -4.117000000     1.507000000    -0.555000000
O    -4.269000000     2.642000000    -0.747000000
O    -5.102000000     0.783000000    -0.572000000
