14
-81.63920
C    -1.597000000    -1.124000000     1.470000000
H    -2.223000000    -1.986000000     1.684000000
C    -0.829000000    -1.122000000     0.284000000
H    -0.741000000    -1.988000000    -0.367000000
C    -0.004000000    -0.073000000    -0.039000000
H     0.579000000    -0.113000000    -0.914000000
C     0.014000000     1.085000000     0.622000000
H     0.604000000     1.925000000     0.266000000
C    -0.889000000     1.151000000     1.719000000
H    -0.915000000     2.100000000     2.249000000
C    -1.729000000     0.112000000     2.156000000
C    -2.761000000     0.320000000     3.207000000
O    -2.735000000     1.334000000     3.816000000
O    -3.726000000    -0.461000000     3.258000000
