14
-89.22746
C    -1.953000000    -0.612000000     1.455000000
H    -2.618000000    -1.467000000     1.550000000
C    -0.788000000    -0.658000000     0.712000000
H    -0.594000000    -1.655000000     0.325000000
C    -0.070000000     0.487000000     0.468000000
H     0.803000000     0.419000000    -0.158000000
C    -0.441000000     1.672000000     1.006000000
H     0.157000000     2.561000000     0.817000000
C    -1.601000000     1.793000000     1.779000000
H    -1.890000000     2.737000000     2.233000000
C    -2.405000000     0.650000000     2.011000000
C    -3.612000000     0.868000000     2.858000000
O    -3.898000000     1.950000000     3.363000000
O    -4.254000000    -0.142000000     3.107000000
