14
-88.94413
C    -1.846000000    -0.072000000    -0.508000000
H    -2.617000000    -0.835000000    -0.441000000
C    -0.528000000    -0.463000000    -0.307000000
H    -0.350000000    -1.535000000    -0.266000000
C     0.557000000     0.411000000    -0.420000000
H     1.580000000     0.046000000    -0.175000000
C     0.285000000     1.775000000    -0.637000000
H     1.070000000     2.525000000    -0.682000000
C    -1.074000000     2.240000000    -0.761000000
H    -1.172000000     3.316000000    -0.879000000
C    -2.178000000     1.302000000    -0.639000000
C    -3.589000000     1.774000000    -0.672000000
O    -3.777000000     3.031000000    -0.552000000
O    -4.556000000     1.021000000    -0.742000000
