14
-75.87362
C    -0.638000000    -0.523000000     1.348000000
H    -1.140000000    -1.426000000     1.685000000
C    -0.202000000    -0.456000000     0.047000000
H    -0.331000000    -1.219000000    -0.717000000
C     0.411000000     0.767000000    -0.315000000
H     1.066000000     0.765000000    -1.186000000
C     0.642000000     1.763000000     0.572000000
H     1.164000000     2.671000000     0.282000000
C     0.106000000     1.644000000     1.872000000
H     0.198000000     2.504000000     2.530000000
C    -0.564000000     0.505000000     2.270000000
C    -1.058000000     0.362000000     3.680000000
O    -1.518000000     1.319000000     4.158000000
O    -1.219000000    -0.745000000     4.080000000
