14
-80.33669
C    -1.481000000    -1.164000000     2.048000000
H    -1.612000000    -1.932000000     2.806000000
C    -0.267000000    -1.097000000     1.400000000
H     0.546000000    -1.773000000     1.651000000
C    -0.022000000    -0.218000000     0.366000000
H     0.972000000    -0.242000000    -0.116000000
C    -0.925000000     0.824000000     0.316000000
H    -0.606000000     1.744000000    -0.167000000
C    -2.091000000     0.830000000     0.971000000
H    -2.729000000     1.708000000     0.913000000
C    -2.445000000    -0.171000000     1.856000000
C    -3.700000000    -0.210000000     2.728000000
O    -4.552000000     0.701000000     2.723000000
O    -3.987000000    -1.228000000     3.315000000
