14
-85.85504
C    -0.495000000    -0.826000000     2.162000000
H    -1.153000000    -1.200000000     2.942000000
C    -0.636000000    -1.254000000     0.814000000
H    -1.302000000    -2.088000000     0.608000000
C    -0.021000000    -0.677000000    -0.263000000
H    -0.175000000    -1.148000000    -1.275000000
C     0.727000000     0.495000000    -0.047000000
H     1.133000000     1.041000000    -0.895000000
C     0.757000000     1.074000000     1.224000000
H     1.247000000     2.030000000     1.384000000
C     0.187000000     0.401000000     2.337000000
C     0.145000000     1.119000000     3.651000000
O     0.620000000     2.260000000     3.648000000
O    -0.644000000     0.811000000     4.561000000
