14
-87.94616
C     0.038000000     0.246000000     2.240000000
H    -0.514000000    -0.402000000     2.915000000
C     0.022000000     0.133000000     0.851000000
H    -0.507000000    -0.749000000     0.499000000
C     0.770000000     0.924000000     0.056000000
H     0.724000000     0.892000000    -1.010000000
C     1.586000000     1.975000000     0.585000000
H     2.041000000     2.712000000    -0.071000000
C     1.603000000     2.137000000     1.961000000
H     2.214000000     2.879000000     2.469000000
C     0.878000000     1.227000000     2.780000000
C     1.109000000     1.313000000     4.295000000
O     1.923000000     2.116000000     4.788000000
O     0.652000000     0.455000000     4.997000000
