14
-83.31079
C     0.105000000    -0.958000000     2.384000000
H     0.123000000    -1.762000000     3.115000000
C    -0.265000000    -1.141000000     1.030000000
H    -0.629000000    -2.069000000     0.595000000
C    -0.204000000    -0.106000000     0.135000000
H    -0.321000000    -0.181000000    -0.914000000
C     0.280000000     1.126000000     0.534000000
H     0.291000000     1.924000000    -0.204000000
C     0.710000000     1.336000000     1.827000000
H     1.045000000     2.327000000     2.123000000
C     0.669000000     0.306000000     2.773000000
C     1.020000000     0.566000000     4.192000000
O     1.560000000     1.610000000     4.565000000
O     0.781000000    -0.236000000     5.040000000
