14
-82.57932
C    -0.160000000    -1.023000000     2.026000000
H    -0.090000000    -1.889000000     2.679000000
C     0.017000000    -1.220000000     0.686000000
H     0.255000000    -2.220000000     0.331000000
C    -0.039000000    -0.176000000    -0.159000000
H     0.120000000    -0.317000000    -1.249000000
C    -0.251000000     1.097000000     0.342000000
H    -0.231000000     1.931000000    -0.354000000
C    -0.471000000     1.288000000     1.707000000
H    -0.393000000     2.311000000     2.067000000
C    -0.513000000     0.205000000     2.569000000
C    -0.452000000     0.318000000     4.127000000
O    -0.893000000     1.281000000     4.630000000
O     0.118000000    -0.550000000     4.813000000
