14
-86.78304
C    -0.585000000    -0.893000000     2.134000000
H    -0.923000000    -1.578000000     2.907000000
C    -0.171000000    -1.269000000     0.863000000
H    -0.148000000    -2.329000000     0.624000000
C     0.140000000    -0.330000000    -0.116000000
H     0.459000000    -0.627000000    -1.094000000
C     0.125000000     1.080000000     0.178000000
H     0.296000000     1.776000000    -0.639000000
C    -0.294000000     1.457000000     1.434000000
H    -0.352000000     2.519000000     1.659000000
C    -0.667000000     0.482000000     2.428000000
C    -0.892000000     0.831000000     3.882000000
O    -0.883000000     2.003000000     4.213000000
O    -0.747000000    -0.031000000     4.712000000
