14
-87.07204
C    -1.435000000    -0.883000000     2.046000000
H    -2.140000000    -1.646000000     2.366000000
C    -0.628000000    -1.105000000     0.847000000
H    -0.787000000    -2.038000000     0.312000000
C     0.280000000    -0.149000000     0.495000000
H     0.884000000    -0.478000000    -0.315000000
C     0.423000000     1.024000000     1.199000000
H     0.978000000     1.847000000     0.756000000
C    -0.329000000     1.230000000     2.362000000
H    -0.169000000     2.117000000     2.969000000
C    -1.274000000     0.287000000     2.812000000
C    -1.896000000     0.382000000     4.240000000
O    -1.561000000     1.280000000     4.960000000
O    -2.652000000    -0.501000000     4.652000000
