14
-85.40188
C    -0.245000000    -1.419000000     2.392000000
H     0.067000000    -2.350000000     2.859000000
C     0.066000000    -1.194000000     1.050000000
H     0.500000000    -2.016000000     0.486000000
C    -0.304000000     0.032000000     0.469000000
H    -0.112000000     0.185000000    -0.631000000
C    -0.772000000     1.070000000     1.271000000
H    -0.899000000     2.091000000     0.918000000
C    -1.123000000     0.818000000     2.591000000
H    -1.432000000     1.666000000     3.197000000
C    -0.813000000    -0.384000000     3.185000000
C    -1.121000000    -0.587000000     4.636000000
O    -1.807000000     0.191000000     5.283000000
O    -0.271000000    -1.264000000     5.233000000
