14
-89.24090
C    -0.413000000    -0.828000000     2.316000000
H    -0.557000000    -1.819000000     2.741000000
C    -0.134000000    -0.731000000     0.965000000
H    -0.162000000    -1.626000000     0.348000000
C    -0.031000000     0.538000000     0.373000000
H     0.082000000     0.567000000    -0.664000000
C    -0.254000000     1.674000000     1.134000000
H    -0.177000000     2.679000000     0.728000000
C    -0.635000000     1.576000000     2.442000000
H    -0.847000000     2.427000000     3.084000000
C    -0.672000000     0.332000000     3.094000000
C    -1.082000000     0.245000000     4.496000000
O    -1.635000000     1.208000000     5.039000000
O    -0.754000000    -0.722000000     5.160000000
