14
-91.25860
C     0.219000000    -0.509000000     3.056000000
H    -0.069000000    -0.984000000     3.991000000
C    -0.178000000    -1.261000000     1.930000000
H    -0.623000000    -2.251000000     1.983000000
C     0.156000000    -0.767000000     0.657000000
H    -0.123000000    -1.278000000    -0.265000000
C     0.766000000     0.463000000     0.595000000
H     1.092000000     0.894000000    -0.348000000
C     0.967000000     1.274000000     1.719000000
H     1.467000000     2.230000000     1.580000000
C     0.726000000     0.791000000     2.995000000
C     0.853000000     1.621000000     4.291000000
O     1.255000000     2.780000000     4.197000000
O     0.507000000     1.140000000     5.343000000
