14
-92.03361
C    -1.541000000    -0.101000000     1.966000000
H    -2.478000000    -0.189000000     2.510000000
C    -1.494000000    -0.240000000     0.570000000
H    -2.418000000    -0.342000000     0.008000000
C    -0.324000000    -0.064000000    -0.163000000
H    -0.314000000    -0.131000000    -1.278000000
C     0.879000000     0.170000000     0.564000000
H     1.793000000     0.167000000    -0.025000000
C     0.782000000     0.381000000     1.889000000
H     1.642000000     0.716000000     2.464000000
C    -0.376000000     0.247000000     2.624000000
C    -0.401000000     0.537000000     4.085000000
O     0.694000000     0.871000000     4.610000000
O    -1.451000000     0.536000000     4.725000000
