14
-84.98931
C     1.480000000    -0.808000000     2.179000000
H     2.341000000    -1.375000000     2.523000000
C     0.734000000    -1.287000000     1.085000000
H     1.066000000    -2.220000000     0.637000000
C    -0.378000000    -0.616000000     0.657000000
H    -0.911000000    -0.914000000    -0.208000000
C    -0.739000000     0.567000000     1.287000000
H    -1.637000000     1.085000000     0.959000000
C     0.049000000     1.104000000     2.349000000
H    -0.265000000     2.002000000     2.875000000
C     1.194000000     0.414000000     2.803000000
C     1.993000000     0.983000000     3.990000000
O     1.590000000     1.967000000     4.517000000
O     2.692000000     0.195000000     4.589000000
