14
-89.41167
C     1.663000000    -0.952000000     2.115000000
H     2.207000000    -1.764000000     2.590000000
C     0.838000000    -1.248000000     1.046000000
H     0.775000000    -2.274000000     0.692000000
C     0.141000000    -0.232000000     0.408000000
H    -0.475000000    -0.350000000    -0.390000000
C     0.129000000     1.042000000     0.907000000
H    -0.421000000     1.840000000     0.413000000
C     0.867000000     1.297000000     2.017000000
H     0.854000000     2.279000000     2.481000000
C     1.785000000     0.352000000     2.565000000
C     2.557000000     0.653000000     3.852000000
O     2.879000000     1.805000000     4.096000000
O     2.813000000    -0.304000000     4.593000000
