14
-83.08434
C     1.856000000    -0.618000000     2.012000000
H     2.611000000    -1.346000000     2.297000000
C     1.018000000    -0.896000000     0.951000000
H     1.096000000    -1.817000000     0.380000000
C     0.162000000     0.066000000     0.535000000
H    -0.409000000    -0.206000000    -0.336000000
C     0.034000000     1.300000000     1.225000000
H    -0.680000000     2.005000000     0.807000000
C     0.742000000     1.429000000     2.409000000
H     0.557000000     2.314000000     3.012000000
C     1.666000000     0.515000000     2.835000000
C     2.402000000     0.641000000     4.149000000
O     2.445000000     1.719000000     4.794000000
O     2.791000000    -0.331000000     4.698000000
