14
-77.43977
C     1.642000000    -0.889000000     0.983000000
H     2.247000000    -1.696000000     1.388000000
C     0.922000000    -1.330000000    -0.116000000
H     1.013000000    -2.320000000    -0.556000000
C     0.089000000    -0.391000000    -0.762000000
H    -0.467000000    -0.707000000    -1.563000000
C    -0.148000000     0.885000000    -0.204000000
H    -0.841000000     1.580000000    -0.672000000
C     0.677000000     1.263000000     0.897000000
H     0.559000000     2.292000000     1.226000000
C     1.483000000     0.364000000     1.570000000
C     2.281000000     0.759000000     2.798000000
O     2.108000000     1.786000000     3.383000000
O     2.869000000    -0.093000000     3.471000000
