14
-86.21786
C     1.383000000    -1.273000000     2.036000000
H     1.830000000    -2.059000000     2.639000000
C     0.798000000    -1.494000000     0.796000000
H     0.903000000    -2.489000000     0.371000000
C     0.219000000    -0.528000000     0.094000000
H    -0.290000000    -0.648000000    -0.863000000
C     0.074000000     0.760000000     0.627000000
H    -0.611000000     1.458000000     0.151000000
C     0.585000000     0.941000000     1.897000000
H     0.378000000     1.887000000     2.391000000
C     1.280000000    -0.025000000     2.610000000
C     1.653000000     0.169000000     4.099000000
O     1.191000000     1.081000000     4.720000000
O     2.300000000    -0.725000000     4.642000000
