14
-89.30488
C    -2.255000000     0.910000000     0.230000000
H    -3.263000000     0.560000000     0.437000000
C    -1.256000000    -0.034000000     0.502000000
H    -1.572000000    -1.007000000     0.867000000
C     0.068000000     0.310000000     0.268000000
H     0.920000000    -0.335000000     0.421000000
C     0.326000000     1.640000000    -0.162000000
H     1.335000000     1.987000000    -0.373000000
C    -0.621000000     2.562000000    -0.421000000
H    -0.338000000     3.576000000    -0.690000000
C    -1.981000000     2.189000000    -0.246000000
C    -3.171000000     3.070000000    -0.559000000
O    -2.919000000     4.250000000    -0.622000000
O    -4.308000000     2.646000000    -0.674000000
