14
-87.87709
C     2.585000000    -0.175000000     2.187000000
H     3.451000000    -0.745000000     2.513000000
C     2.001000000    -0.540000000     0.979000000
H     2.416000000    -1.329000000     0.357000000
C     0.844000000     0.019000000     0.501000000
H     0.452000000    -0.386000000    -0.511000000
C     0.237000000     1.018000000     1.222000000
H    -0.621000000     1.571000000     0.848000000
C     0.729000000     1.431000000     2.448000000
H     0.410000000     2.367000000     2.898000000
C     1.893000000     0.789000000     2.930000000
C     2.571000000     1.266000000     4.225000000
O     1.963000000     1.840000000     5.112000000
O     3.722000000     0.837000000     4.368000000
