14
-88.66129
C     1.433000000    -0.676000000     1.824000000
H     1.992000000    -1.454000000     2.337000000
C     1.088000000    -0.954000000     0.513000000
H     1.264000000    -1.922000000     0.052000000
C     0.346000000    -0.018000000    -0.186000000
H     0.018000000    -0.168000000    -1.135000000
C    -0.055000000     1.200000000     0.435000000
H    -0.658000000     1.897000000    -0.143000000
C     0.347000000     1.467000000     1.711000000
H     0.013000000     2.383000000     2.191000000
C     1.095000000     0.535000000     2.432000000
C     1.540000000     0.771000000     3.813000000
O     1.274000000     1.829000000     4.323000000
O     2.030000000    -0.143000000     4.486000000
