14
-87.37850
C     1.170000000    -0.519000000     2.361000000
H     1.824000000    -1.303000000     2.733000000
C     0.788000000    -0.588000000     1.004000000
H     0.995000000    -1.452000000     0.379000000
C    -0.054000000     0.393000000     0.518000000
H    -0.391000000     0.288000000    -0.498000000
C    -0.504000000     1.461000000     1.335000000
H    -1.192000000     2.190000000     0.915000000
C    -0.089000000     1.540000000     2.654000000
H    -0.418000000     2.351000000     3.298000000
C     0.766000000     0.509000000     3.208000000
C     1.397000000     0.710000000     4.601000000
O     1.107000000     1.699000000     5.206000000
O     1.984000000    -0.185000000     5.158000000
