14
-83.93179
C     2.203000000    -1.068000000     2.128000000
H     3.065000000    -1.689000000     2.360000000
C     1.690000000    -1.147000000     0.843000000
H     2.018000000    -1.918000000     0.150000000
C     0.723000000    -0.253000000     0.450000000
H     0.291000000    -0.295000000    -0.567000000
C     0.305000000     0.719000000     1.363000000
H    -0.491000000     1.374000000     1.018000000
C     0.866000000     0.829000000     2.607000000
H     0.607000000     1.670000000     3.245000000
C     1.819000000    -0.029000000     3.028000000
C     2.506000000     0.178000000     4.361000000
O     2.189000000     1.108000000     5.047000000
O     3.182000000    -0.702000000     4.776000000
