14
-86.31770
C     1.911000000    -1.360000000     2.403000000
H     2.332000000    -2.291000000     2.774000000
C     1.226000000    -1.373000000     1.196000000
H     1.169000000    -2.272000000     0.588000000
C     0.457000000    -0.307000000     0.800000000
H    -0.174000000    -0.422000000    -0.108000000
C     0.509000000     0.942000000     1.503000000
H    -0.185000000     1.719000000     1.195000000
C     1.290000000     1.017000000     2.738000000
H     1.403000000     1.922000000     3.328000000
C     1.966000000    -0.121000000     3.158000000
C     2.732000000    -0.172000000     4.533000000
O     2.660000000     0.771000000     5.357000000
O     3.361000000    -1.154000000     4.808000000
