14
-90.01275
C     1.643000000    -1.257000000     1.727000000
H     1.714000000    -2.299000000     2.027000000
C     1.277000000    -0.899000000     0.437000000
H     1.124000000    -1.758000000    -0.211000000
C     1.152000000     0.435000000     0.116000000
H     0.971000000     0.775000000    -0.936000000
C     1.519000000     1.384000000     0.994000000
H     1.679000000     2.413000000     0.685000000
C     1.895000000     1.092000000     2.330000000
H     2.126000000     1.860000000     3.063000000
C     1.993000000    -0.279000000     2.686000000
C     2.607000000    -0.655000000     4.017000000
O     3.219000000     0.252000000     4.631000000
O     2.313000000    -1.768000000     4.551000000
