14
-83.68959
C     2.209000000     0.337000000     2.320000000
H     3.244000000     0.013000000     2.391000000
C     1.525000000    -0.010000000     1.196000000
H     2.052000000    -0.596000000     0.447000000
C     0.293000000     0.520000000     1.005000000
H    -0.357000000     0.303000000     0.197000000
C    -0.285000000     1.336000000     2.006000000
H    -1.275000000     1.783000000     1.986000000
C     0.391000000     1.530000000     3.210000000
H    -0.129000000     2.072000000     3.996000000
C     1.645000000     1.055000000     3.363000000
C     2.236000000     1.187000000     4.692000000
O     1.508000000     1.368000000     5.670000000
O     3.414000000     0.897000000     4.733000000
