14
-86.43571
C     1.558000000    -1.333000000     2.149000000
H     1.864000000    -2.340000000     2.420000000
C     0.545000000    -1.100000000     1.166000000
H     0.064000000    -1.988000000     0.765000000
C     0.090000000     0.178000000     0.913000000
H    -0.745000000     0.361000000     0.313000000
C     0.598000000     1.247000000     1.597000000
H     0.171000000     2.219000000     1.363000000
C     1.649000000     1.075000000     2.504000000
H     2.089000000     1.968000000     2.941000000
C     2.119000000    -0.276000000     2.761000000
C     3.148000000    -0.508000000     3.855000000
O     3.532000000     0.425000000     4.505000000
O     3.572000000    -1.626000000     4.036000000
