14
-90.24088
C     0.301000000    -1.664000000     1.831000000
H    -0.262000000    -2.353000000     2.455000000
C    -0.302000000    -0.891000000     0.841000000
H    -1.363000000    -0.944000000     0.608000000
C     0.454000000    -0.145000000    -0.078000000
H     0.032000000     0.455000000    -0.900000000
C     1.847000000    -0.096000000     0.048000000
H     2.424000000     0.609000000    -0.545000000
C     2.433000000    -0.784000000     1.161000000
H     3.507000000    -0.750000000     1.325000000
C     1.670000000    -1.543000000     2.017000000
C     2.253000000    -2.288000000     3.136000000
O     3.406000000    -2.656000000     3.049000000
O     1.549000000    -2.475000000     4.197000000
