14
-81.34503
C     1.982000000    -0.839000000     2.534000000
H     2.288000000    -1.686000000     3.143000000
C     1.640000000    -1.093000000     1.256000000
H     1.779000000    -2.120000000     0.926000000
C     1.114000000    -0.092000000     0.456000000
H     1.009000000    -0.405000000    -0.580000000
C     0.924000000     1.163000000     1.020000000
H     0.565000000     1.973000000     0.390000000
C     1.267000000     1.508000000     2.301000000
H     1.263000000     2.541000000     2.639000000
C     1.837000000     0.475000000     3.120000000
C     2.392000000     0.709000000     4.486000000
O     1.964000000     1.596000000     5.126000000
O     3.189000000    -0.113000000     4.973000000
