14
-84.57618
C     0.684000000    -1.220000000     1.509000000
H     0.220000000    -1.751000000     2.336000000
C    -0.120000000    -0.479000000     0.664000000
H    -1.193000000    -0.351000000     0.779000000
C     0.481000000     0.153000000    -0.368000000
H    -0.069000000     0.728000000    -1.005000000
C     1.872000000     0.248000000    -0.500000000
H     2.373000000     0.626000000    -1.388000000
C     2.666000000    -0.388000000     0.417000000
H     3.744000000    -0.432000000     0.287000000
C     2.063000000    -1.163000000     1.405000000
C     2.986000000    -1.890000000     2.392000000
O     4.201000000    -1.761000000     2.312000000
O     2.541000000    -2.422000000     3.403000000
