14
-88.75856
C     0.892000000    -1.740000000     1.470000000
H     0.553000000    -2.252000000     2.367000000
C    -0.068000000    -1.013000000     0.747000000
H    -1.125000000    -1.042000000     0.997000000
C     0.375000000    -0.166000000    -0.279000000
H    -0.390000000     0.356000000    -0.825000000
C     1.778000000    -0.006000000    -0.505000000
H     2.098000000     0.716000000    -1.253000000
C     2.702000000    -0.880000000     0.137000000
H     3.777000000    -0.856000000    -0.023000000
C     2.217000000    -1.691000000     1.107000000
C     3.232000000    -2.634000000     1.857000000
O     4.398000000    -2.651000000     1.440000000
O     2.937000000    -2.981000000     2.984000000
