14
-83.50452
C    -0.106000000    -1.010000000     2.182000000
H    -0.317000000    -1.306000000     3.207000000
C    -1.029000000    -0.333000000     1.318000000
H    -2.044000000    -0.159000000     1.663000000
C    -0.587000000     0.077000000     0.018000000
H    -1.259000000     0.699000000    -0.601000000
C     0.706000000    -0.019000000    -0.287000000
H     1.009000000     0.388000000    -1.248000000
C     1.655000000    -0.609000000     0.497000000
H     2.677000000    -0.648000000     0.128000000
C     1.244000000    -1.123000000     1.770000000
C     2.329000000    -1.755000000     2.644000000
O     3.511000000    -1.785000000     2.291000000
O     2.048000000    -1.938000000     3.807000000
