14
-80.53327
C     0.755000000    -2.186000000     1.933000000
H     0.753000000    -2.900000000     2.752000000
C    -0.328000000    -1.435000000     1.517000000
H    -1.297000000    -1.639000000     1.965000000
C    -0.184000000    -0.523000000     0.453000000
H    -1.052000000    -0.104000000    -0.124000000
C     1.008000000    -0.454000000    -0.229000000
H     1.123000000     0.204000000    -1.087000000
C     2.102000000    -1.193000000     0.186000000
H     3.069000000    -0.995000000    -0.269000000
C     1.986000000    -2.042000000     1.264000000
C     3.160000000    -2.753000000     1.787000000
O     4.286000000    -2.320000000     1.567000000
O     3.050000000    -3.461000000     2.775000000
