14
-88.08438
C     1.037000000    -1.517000000     2.508000000
H     1.095000000    -2.080000000     3.436000000
C    -0.142000000    -0.869000000     2.021000000
H    -1.061000000    -0.889000000     2.602000000
C    -0.170000000    -0.200000000     0.806000000
H    -1.144000000     0.112000000     0.330000000
C     1.004000000    -0.206000000     0.021000000
H     0.996000000     0.215000000    -0.981000000
C     2.160000000    -0.876000000     0.418000000
H     3.026000000    -0.965000000    -0.232000000
C     2.168000000    -1.543000000     1.646000000
C     3.457000000    -2.207000000     2.098000000
O     4.328000000    -2.333000000     1.282000000
O     3.660000000    -2.545000000     3.249000000
