14
-92.18879
C     1.641000000    -1.852000000     0.809000000
H     1.977000000    -2.793000000     1.237000000
C     0.319000000    -1.410000000     0.846000000
H    -0.338000000    -1.964000000     1.512000000
C     0.031000000    -0.172000000     0.272000000
H    -0.879000000     0.280000000     0.413000000
C     1.012000000     0.509000000    -0.405000000
H     0.789000000     1.483000000    -0.833000000
C     2.325000000     0.054000000    -0.442000000
H     3.055000000     0.660000000    -0.973000000
C     2.647000000    -1.164000000     0.169000000
C     4.053000000    -1.633000000     0.183000000
O     4.956000000    -0.813000000    -0.006000000
O     4.223000000    -2.823000000     0.460000000
