14
-85.55340
C    -2.260000000     0.516000000    -0.266000000
H    -3.344000000     0.493000000    -0.188000000
C    -1.567000000    -0.617000000     0.125000000
H    -2.068000000    -1.552000000     0.360000000
C    -0.165000000    -0.489000000     0.124000000
H     0.361000000    -1.457000000     0.360000000
C     0.500000000     0.701000000    -0.178000000
H     1.586000000     0.659000000    -0.202000000
C    -0.243000000     1.784000000    -0.474000000
H     0.207000000     2.767000000    -0.588000000
C    -1.647000000     1.688000000    -0.587000000
C    -2.473000000     2.909000000    -1.052000000
O    -2.229000000     3.942000000    -0.513000000
O    -3.372000000     2.821000000    -1.860000000
