14
-84.70024
C     1.660000000    -1.830000000     1.222000000
H     1.648000000    -2.828000000     1.654000000
C     0.416000000    -1.255000000     0.954000000
H    -0.433000000    -1.689000000     1.476000000
C     0.380000000    -0.057000000     0.277000000
H    -0.520000000     0.512000000     0.206000000
C     1.453000000     0.343000000    -0.477000000
H     1.255000000     1.133000000    -1.197000000
C     2.739000000    -0.239000000    -0.244000000
H     3.586000000     0.128000000    -0.818000000
C     2.857000000    -1.340000000     0.645000000
C     4.120000000    -1.977000000     0.928000000
O     5.074000000    -1.210000000     0.925000000
O     4.204000000    -3.172000000     1.183000000
