14
-89.55243
C     1.248000000    -1.737000000     1.075000000
H     1.329000000    -2.586000000     1.750000000
C     0.065000000    -1.119000000     0.784000000
H    -0.893000000    -1.547000000     1.070000000
C     0.039000000    -0.032000000    -0.064000000
H    -0.954000000     0.484000000    -0.143000000
C     1.211000000     0.491000000    -0.566000000
H     1.086000000     1.437000000    -1.087000000
C     2.436000000    -0.066000000    -0.218000000
H     3.317000000     0.436000000    -0.609000000
C     2.450000000    -1.186000000     0.641000000
C     3.867000000    -1.766000000     1.084000000
O     4.878000000    -1.073000000     0.921000000
O     3.968000000    -2.878000000     1.632000000
