14
-89.57303
C     1.269000000    -2.052000000     1.040000000
H     1.081000000    -2.595000000     1.963000000
C     0.324000000    -1.082000000     0.651000000
H    -0.612000000    -0.993000000     1.196000000
C     0.547000000    -0.222000000    -0.397000000
H    -0.229000000     0.447000000    -0.700000000
C     1.754000000    -0.250000000    -1.032000000
H     2.000000000     0.484000000    -1.794000000
C     2.752000000    -1.171000000    -0.668000000
H     3.708000000    -1.260000000    -1.176000000
C     2.536000000    -2.009000000     0.442000000
C     3.669000000    -2.925000000     0.993000000
O     4.856000000    -2.734000000     0.731000000
O     3.378000000    -3.652000000     1.956000000
