14
-83.96956
C     0.679000000    -1.066000000     1.459000000
H     0.339000000    -1.681000000     2.288000000
C    -0.273000000    -0.489000000     0.609000000
H    -1.349000000    -0.632000000     0.670000000
C     0.050000000     0.392000000    -0.411000000
H    -0.672000000     0.781000000    -1.035000000
C     1.407000000     0.615000000    -0.624000000
H     1.737000000     1.208000000    -1.474000000
C     2.382000000    -0.032000000     0.023000000
H     3.379000000     0.157000000    -0.367000000
C     2.072000000    -0.843000000     1.154000000
C     3.017000000    -1.549000000     2.031000000
O     4.160000000    -1.640000000     1.589000000
O     2.691000000    -1.921000000     3.154000000
