14
-81.21841
C     0.932000000    -1.148000000     0.930000000
H     0.883000000    -1.884000000     1.728000000
C    -0.212000000    -0.419000000     0.584000000
H    -1.139000000    -0.579000000     1.130000000
C    -0.210000000     0.439000000    -0.434000000
H    -1.144000000     0.972000000    -0.707000000
C     0.991000000     0.733000000    -1.077000000
H     1.031000000     1.486000000    -1.860000000
C     2.159000000     0.003000000    -0.744000000
H     3.000000000     0.186000000    -1.407000000
C     2.128000000    -0.937000000     0.198000000
C     3.326000000    -1.790000000     0.506000000
O     4.179000000    -1.976000000    -0.321000000
O     3.395000000    -2.524000000     1.501000000
