14
-89.49040
C     1.529000000    -2.579000000     1.027000000
H     1.305000000    -3.421000000     1.678000000
C     0.519000000    -1.705000000     0.612000000
H    -0.505000000    -1.812000000     0.960000000
C     0.840000000    -0.661000000    -0.296000000
H     0.064000000     0.098000000    -0.592000000
C     2.141000000    -0.475000000    -0.700000000
H     2.368000000     0.354000000    -1.366000000
C     3.126000000    -1.340000000    -0.310000000
H     4.149000000    -1.064000000    -0.552000000
C     2.879000000    -2.417000000     0.551000000
C     4.028000000    -3.398000000     0.901000000
O     5.105000000    -3.279000000     0.293000000
O     3.917000000    -4.377000000     1.640000000
