14
-81.06501
C    -0.571000000    -1.165000000     1.525000000
H    -0.323000000    -1.827000000     2.351000000
C     0.463000000    -0.747000000     0.703000000
H     1.465000000    -1.101000000     0.931000000
C     0.321000000     0.156000000    -0.390000000
H     1.245000000     0.488000000    -0.867000000
C    -0.916000000     0.702000000    -0.568000000
H    -0.866000000     1.438000000    -1.367000000
C    -1.944000000     0.351000000     0.312000000
H    -2.843000000     0.960000000     0.281000000
C    -1.868000000    -0.542000000     1.348000000
C    -2.975000000    -0.855000000     2.313000000
O    -4.118000000    -0.859000000     1.877000000
O    -2.724000000    -1.487000000     3.362000000
