14
-82.89631
C     1.388000000    -0.160000000     2.436000000
H     1.255000000    -0.504000000     3.459000000
C     0.311000000    -0.340000000     1.537000000
H    -0.612000000    -0.839000000     1.822000000
C     0.365000000     0.072000000     0.192000000
H    -0.559000000    -0.114000000    -0.433000000
C     1.440000000     0.868000000    -0.138000000
H     1.451000000     1.284000000    -1.143000000
C     2.537000000     1.060000000     0.709000000
H     3.299000000     1.679000000     0.242000000
C     2.523000000     0.586000000     2.079000000
C     3.698000000     0.858000000     3.056000000
O     4.699000000     1.366000000     2.613000000
O     3.737000000     0.261000000     4.120000000
