14
-86.89712
C     0.825000000    -0.387000000     2.258000000
H     0.229000000    -0.607000000     3.140000000
C     0.001000000    -0.110000000     1.173000000
H    -1.050000000    -0.316000000     1.359000000
C     0.573000000     0.332000000     0.038000000
H    -0.073000000     0.468000000    -0.850000000
C     1.952000000     0.437000000    -0.098000000
H     2.278000000     0.625000000    -1.117000000
C     2.784000000     0.245000000     0.974000000
H     3.854000000     0.377000000     0.834000000
C     2.208000000    -0.189000000     2.214000000
C     3.011000000    -0.184000000     3.521000000
O     4.231000000     0.125000000     3.447000000
O     2.543000000    -0.662000000     4.576000000
