14
-87.99086
C     1.509000000     0.367000000     2.440000000
H     1.277000000     0.379000000     3.502000000
C     0.586000000     0.314000000     1.394000000
H    -0.479000000     0.232000000     1.595000000
C     1.041000000     0.243000000     0.066000000
H     0.310000000     0.090000000    -0.729000000
C     2.400000000     0.309000000    -0.239000000
H     2.707000000     0.289000000    -1.282000000
C     3.326000000     0.342000000     0.822000000
H     4.394000000     0.319000000     0.618000000
C     2.906000000     0.394000000     2.173000000
C     3.847000000     0.356000000     3.342000000
O     4.974000000     0.782000000     3.279000000
O     3.452000000     0.001000000     4.424000000
