14
-85.19313
C     1.415000000    -1.185000000     2.250000000
H     1.388000000    -1.636000000     3.239000000
C     0.253000000    -1.113000000     1.420000000
H    -0.680000000    -1.607000000     1.679000000
C     0.326000000    -0.492000000     0.129000000
H    -0.620000000    -0.505000000    -0.497000000
C     1.499000000     0.124000000    -0.240000000
H     1.474000000     0.666000000    -1.181000000
C     2.613000000     0.099000000     0.594000000
H     3.572000000     0.529000000     0.318000000
C     2.548000000    -0.530000000     1.836000000
C     3.671000000    -0.309000000     2.797000000
O     4.702000000     0.300000000     2.570000000
O     3.647000000    -0.910000000     3.872000000
