14
-85.36729
C     0.983000000    -0.426000000     1.710000000
H     0.674000000    -0.870000000     2.654000000
C     0.051000000    -0.281000000     0.671000000
H    -1.014000000    -0.498000000     0.687000000
C     0.451000000     0.193000000    -0.534000000
H    -0.263000000     0.238000000    -1.311000000
C     1.785000000     0.586000000    -0.729000000
H     1.996000000     1.008000000    -1.709000000
C     2.711000000     0.473000000     0.290000000
H     3.713000000     0.806000000     0.030000000
C     2.335000000    -0.049000000     1.507000000
C     3.325000000    -0.310000000     2.580000000
O     4.437000000     0.046000000     2.387000000
O     3.048000000    -0.937000000     3.638000000
