14
-82.94104
C     1.252000000    -1.090000000     2.137000000
H     1.137000000    -1.867000000     2.889000000
C     0.333000000    -0.720000000     1.128000000
H    -0.472000000    -1.413000000     0.898000000
C     0.601000000     0.307000000     0.267000000
H    -0.160000000     0.502000000    -0.461000000
C     1.662000000     1.122000000     0.439000000
H     1.876000000     1.945000000    -0.238000000
C     2.484000000     0.879000000     1.525000000
H     3.412000000     1.445000000     1.542000000
C     2.324000000    -0.197000000     2.411000000
C     3.295000000    -0.501000000     3.491000000
O     4.282000000     0.194000000     3.630000000
O     3.001000000    -1.303000000     4.346000000
