14
-91.97542
C     0.109000000    -0.498000000     1.821000000
H    -0.468000000    -0.993000000     2.599000000
C    -0.558000000    -0.136000000     0.665000000
H    -1.583000000    -0.352000000     0.372000000
C     0.135000000     0.524000000    -0.380000000
H    -0.254000000     0.677000000    -1.386000000
C     1.466000000     0.815000000    -0.184000000
H     2.055000000     1.242000000    -0.991000000
C     2.104000000     0.511000000     1.020000000
H     3.127000000     0.830000000     1.200000000
C     1.401000000    -0.033000000     2.092000000
C     2.075000000    -0.280000000     3.424000000
O     3.272000000     0.075000000     3.496000000
O     1.511000000    -0.901000000     4.309000000
