14
-93.07501
C     0.890000000    -1.525000000     1.220000000
H     0.988000000    -2.464000000     1.759000000
C    -0.226000000    -1.316000000     0.411000000
H    -0.866000000    -2.164000000     0.183000000
C    -0.398000000    -0.092000000    -0.302000000
H    -1.277000000     0.124000000    -0.886000000
C     0.610000000     0.861000000    -0.122000000
H     0.568000000     1.835000000    -0.601000000
C     1.710000000     0.698000000     0.677000000
H     2.433000000     1.498000000     0.810000000
C     1.915000000    -0.558000000     1.335000000
C     3.235000000    -0.853000000     2.083000000
O     4.218000000    -0.133000000     1.849000000
O     3.330000000    -1.846000000     2.822000000
