14
-89.26043
C     0.620000000    -2.201000000     1.059000000
H     0.516000000    -3.186000000     1.506000000
C    -0.504000000    -1.485000000     0.607000000
H    -1.533000000    -1.833000000     0.630000000
C    -0.339000000    -0.248000000     0.005000000
H    -1.235000000     0.225000000    -0.296000000
C     0.884000000     0.324000000    -0.111000000
H     1.053000000     1.330000000    -0.485000000
C     2.007000000    -0.430000000     0.249000000
H     2.985000000    -0.051000000    -0.035000000
C     1.873000000    -1.676000000     0.858000000
C     3.037000000    -2.506000000     1.258000000
O     4.189000000    -2.378000000     0.722000000
O     2.933000000    -3.285000000     2.201000000
