14
-84.35651
C     1.124000000    -2.575000000     0.447000000
H     0.991000000    -3.648000000     0.561000000
C    -0.038000000    -1.801000000     0.397000000
H    -1.013000000    -2.272000000     0.300000000
C     0.032000000    -0.435000000     0.401000000
H    -0.979000000     0.145000000     0.514000000
C     1.220000000     0.162000000     0.588000000
H     1.296000000     1.242000000     0.684000000
C     2.449000000    -0.531000000     0.557000000
H     3.414000000    -0.036000000     0.629000000
C     2.435000000    -1.920000000     0.532000000
C     3.720000000    -2.742000000     0.536000000
O     4.842000000    -2.178000000     0.538000000
O     3.699000000    -3.950000000     0.790000000
