14
-83.81284
C     1.116000000    -2.153000000     0.479000000
H     0.888000000    -3.161000000     0.140000000
C     0.159000000    -1.097000000     0.525000000
H    -0.888000000    -1.355000000     0.387000000
C     0.589000000     0.181000000     0.729000000
H    -0.125000000     0.977000000     0.680000000
C     1.938000000     0.540000000     0.947000000
H     2.212000000     1.579000000     1.108000000
C     2.895000000    -0.548000000     1.014000000
H     3.961000000    -0.474000000     1.214000000
C     2.425000000    -1.905000000     0.830000000
C     3.333000000    -3.065000000     0.828000000
O     4.429000000    -2.837000000     1.313000000
O     3.019000000    -4.242000000     0.611000000
