14
-83.04900
C     0.666000000    -1.406000000     2.060000000
H     0.625000000    -1.358000000     3.145000000
C    -0.077000000    -0.545000000     1.314000000
H    -0.742000000     0.154000000     1.815000000
C     0.060000000    -0.526000000    -0.075000000
H    -0.587000000     0.174000000    -0.613000000
C     0.914000000    -1.439000000    -0.603000000
H     1.062000000    -1.474000000    -1.679000000
C     1.684000000    -2.295000000     0.117000000
H     2.354000000    -2.880000000    -0.507000000
C     1.587000000    -2.338000000     1.531000000
C     2.456000000    -3.161000000     2.448000000
O     3.617000000    -3.461000000     2.129000000
O     2.092000000    -3.488000000     3.541000000
