14
-87.93413
C     0.812000000    -1.138000000     2.029000000
H     1.106000000    -1.326000000     3.059000000
C     0.066000000    -0.010000000     1.719000000
H    -0.319000000     0.649000000     2.494000000
C    -0.293000000     0.304000000     0.427000000
H    -0.910000000     1.179000000     0.161000000
C     0.058000000    -0.595000000    -0.583000000
H    -0.305000000    -0.415000000    -1.592000000
C     0.759000000    -1.741000000    -0.330000000
H     1.130000000    -2.428000000    -1.087000000
C     1.157000000    -1.995000000     1.009000000
C     1.824000000    -3.329000000     1.411000000
O     1.952000000    -4.242000000     0.606000000
O     2.450000000    -3.355000000     2.432000000
