14
-81.46010
C     0.542000000    -1.181000000     1.664000000
H     0.260000000    -1.472000000     2.673000000
C    -0.028000000    -0.149000000     0.948000000
H    -0.862000000     0.410000000     1.365000000
C     0.437000000     0.141000000    -0.287000000
H    -0.050000000     0.995000000    -0.853000000
C     1.460000000    -0.600000000    -0.844000000
H     1.784000000    -0.522000000    -1.878000000
C     1.976000000    -1.729000000    -0.122000000
H     2.711000000    -2.372000000    -0.600000000
C     1.527000000    -2.003000000     1.171000000
C     2.043000000    -3.167000000     1.987000000
O     3.148000000    -3.564000000     1.664000000
O     1.663000000    -3.508000000     3.105000000
