14
-72.41107
C     0.856000000    -1.327000000     2.411000000
H     1.030000000    -1.580000000     3.454000000
C     0.414000000    -0.048000000     2.093000000
H     0.074000000     0.678000000     2.828000000
C     0.275000000     0.222000000     0.708000000
H    -0.256000000     1.188000000     0.457000000
C     0.595000000    -0.688000000    -0.250000000
H     0.543000000    -0.475000000    -1.314000000
C     0.939000000    -1.952000000     0.065000000
H     1.190000000    -2.664000000    -0.717000000
C     1.159000000    -2.262000000     1.416000000
C     1.472000000    -3.691000000     1.725000000
O     2.155000000    -4.359000000     1.037000000
O     1.247000000    -4.228000000     2.807000000
