14
-83.62471
C    -1.660000000     0.166000000    -1.176000000
H    -2.553000000    -0.357000000    -1.508000000
C    -0.717000000    -0.621000000    -0.507000000
H    -0.864000000    -1.697000000    -0.465000000
C     0.412000000     0.060000000     0.034000000
H     1.234000000    -0.582000000     0.337000000
C     0.524000000     1.418000000    -0.140000000
H     1.415000000     1.859000000     0.300000000
C    -0.491000000     2.169000000    -0.684000000
H    -0.474000000     3.254000000    -0.735000000
C    -1.585000000     1.525000000    -1.297000000
C    -2.639000000     2.264000000    -2.036000000
O    -2.595000000     3.493000000    -2.037000000
O    -3.653000000     1.725000000    -2.362000000
