14
-84.90542
C     0.955000000    -1.023000000     1.386000000
H     1.173000000    -0.923000000     2.446000000
C     0.273000000    -0.015000000     0.696000000
H    -0.075000000     0.898000000     1.172000000
C     0.161000000    -0.124000000    -0.657000000
H    -0.352000000     0.681000000    -1.157000000
C     0.688000000    -1.253000000    -1.317000000
H     0.630000000    -1.321000000    -2.400000000
C     1.442000000    -2.171000000    -0.581000000
H     1.966000000    -2.968000000    -1.103000000
C     1.507000000    -2.154000000     0.783000000
C     2.116000000    -3.233000000     1.587000000
O     2.617000000    -4.196000000     1.043000000
O     2.463000000    -3.008000000     2.784000000
