14
-87.33037
C     0.087000000    -0.888000000     1.476000000
H    -0.054000000    -0.904000000     2.554000000
C    -0.654000000     0.125000000     0.733000000
H    -1.334000000     0.804000000     1.242000000
C    -0.570000000     0.223000000    -0.600000000
H    -1.172000000     0.989000000    -1.115000000
C     0.319000000    -0.645000000    -1.220000000
H     0.480000000    -0.576000000    -2.293000000
C     1.008000000    -1.684000000    -0.605000000
H     1.605000000    -2.306000000    -1.267000000
C     0.907000000    -1.819000000     0.796000000
C     1.591000000    -2.945000000     1.553000000
O     2.143000000    -3.817000000     0.938000000
O     1.624000000    -2.909000000     2.785000000
