14
-87.89211
C     0.351000000    -1.963000000     1.430000000
H    -0.232000000    -2.144000000     2.329000000
C     0.035000000    -0.887000000     0.668000000
H    -0.775000000    -0.249000000     1.011000000
C     0.797000000    -0.685000000    -0.472000000
H     0.512000000     0.078000000    -1.181000000
C     1.845000000    -1.592000000    -0.846000000
H     2.441000000    -1.333000000    -1.718000000
C     2.158000000    -2.632000000     0.044000000
H     2.999000000    -3.299000000    -0.122000000
C     1.413000000    -2.806000000     1.201000000
C     1.732000000    -3.976000000     2.152000000
O     2.702000000    -4.692000000     1.865000000
O     1.303000000    -3.966000000     3.288000000
