14
-83.45768
C     0.933000000    -1.090000000     1.846000000
H     1.012000000    -0.980000000     2.924000000
C     0.005000000    -0.248000000     1.130000000
H    -0.732000000     0.370000000     1.636000000
C     0.152000000    -0.207000000    -0.240000000
H    -0.492000000     0.551000000    -0.786000000
C     0.997000000    -1.142000000    -0.887000000
H     0.865000000    -1.117000000    -1.966000000
C     1.690000000    -2.126000000    -0.148000000
H     2.224000000    -2.882000000    -0.718000000
C     1.696000000    -2.021000000     1.205000000
C     2.584000000    -2.981000000     1.975000000
O     3.453000000    -3.575000000     1.421000000
O     2.433000000    -3.101000000     3.184000000
