14
-86.23569
C     2.203000000    -0.692000000     1.642000000
H     2.860000000    -0.871000000     2.489000000
C     1.013000000    -0.021000000     1.805000000
H     0.664000000     0.313000000     2.779000000
C     0.195000000     0.198000000     0.683000000
H    -0.707000000     0.878000000     0.807000000
C     0.555000000    -0.215000000    -0.566000000
H    -0.151000000    -0.123000000    -1.388000000
C     1.779000000    -0.789000000    -0.697000000
H     2.042000000    -1.138000000    -1.693000000
C     2.627000000    -1.039000000     0.398000000
C     3.902000000    -1.823000000     0.227000000
O     4.393000000    -2.108000000    -0.882000000
O     4.472000000    -2.249000000     1.204000000
