14
-87.24146
C     0.777000000    -1.504000000     1.021000000
H     1.053000000    -1.528000000     2.072000000
C     0.154000000    -0.340000000     0.530000000
H    -0.220000000     0.394000000     1.238000000
C    -0.045000000    -0.115000000    -0.818000000
H    -0.625000000     0.785000000    -1.181000000
C     0.494000000    -1.081000000    -1.691000000
H     0.496000000    -0.938000000    -2.769000000
C     1.133000000    -2.154000000    -1.208000000
H     1.630000000    -2.823000000    -1.906000000
C     1.343000000    -2.419000000     0.146000000
C     2.141000000    -3.571000000     0.701000000
O     2.910000000    -4.186000000    -0.035000000
O     2.206000000    -3.796000000     1.918000000
