14
-87.48594
C     1.340000000    -1.294000000     0.906000000
H     1.168000000    -2.320000000     1.223000000
C     0.248000000    -0.596000000     0.387000000
H    -0.752000000    -1.020000000     0.425000000
C     0.411000000     0.637000000    -0.252000000
H    -0.443000000     1.156000000    -0.810000000
C     1.710000000     1.208000000    -0.232000000
H     1.869000000     2.176000000    -0.699000000
C     2.729000000     0.617000000     0.462000000
H     3.651000000     1.175000000     0.605000000
C     2.548000000    -0.637000000     1.024000000
C     3.732000000    -1.278000000     1.812000000
O     4.780000000    -0.705000000     1.872000000
O     3.670000000    -2.418000000     2.329000000
