14
-79.44034
C     1.760000000    -2.077000000     0.907000000
H     1.625000000    -2.864000000     1.645000000
C     0.846000000    -1.006000000     0.854000000
H    -0.090000000    -1.007000000     1.407000000
C     1.085000000     0.101000000     0.027000000
H     0.300000000     0.847000000    -0.103000000
C     2.180000000     0.126000000    -0.810000000
H     2.203000000     0.908000000    -1.565000000
C     3.062000000    -0.961000000    -0.842000000
H     3.922000000    -0.983000000    -1.505000000
C     2.906000000    -1.965000000     0.077000000
C     4.091000000    -2.932000000     0.361000000
O     5.090000000    -2.879000000    -0.266000000
O     4.089000000    -3.616000000     1.336000000
