14
-87.76214
C     1.587000000    -2.101000000     1.105000000
H     1.592000000    -3.149000000     1.393000000
C     0.357000000    -1.513000000     0.723000000
H    -0.552000000    -2.082000000     0.903000000
C     0.403000000    -0.273000000     0.086000000
H    -0.430000000     0.228000000    -0.382000000
C     1.574000000     0.484000000     0.050000000
H     1.556000000     1.479000000    -0.388000000
C     2.760000000    -0.076000000     0.529000000
H     3.709000000     0.451000000     0.463000000
C     2.846000000    -1.385000000     0.925000000
C     4.136000000    -2.053000000     1.268000000
O     5.184000000    -1.474000000     0.979000000
O     4.235000000    -3.198000000     1.733000000
