14
-84.64724
C    -2.017000000     1.030000000    -1.147000000
H    -2.828000000     1.168000000    -1.858000000
C    -1.679000000    -0.230000000    -0.601000000
H    -2.420000000    -1.007000000    -0.766000000
C    -0.471000000    -0.323000000     0.126000000
H    -0.177000000    -1.169000000     0.739000000
C     0.475000000     0.662000000     0.025000000
H     1.462000000     0.482000000     0.443000000
C     0.087000000     1.883000000    -0.492000000
H     0.873000000     2.634000000    -0.526000000
C    -1.190000000     2.150000000    -0.877000000
C    -1.608000000     3.528000000    -1.211000000
O    -0.811000000     4.401000000    -0.894000000
O    -2.797000000     3.751000000    -1.575000000
