14
-88.36481
C     1.994000000    -2.123000000     1.034000000
H     1.631000000    -3.048000000     1.475000000
C     1.056000000    -1.300000000     0.396000000
H     0.099000000    -1.761000000     0.167000000
C     1.341000000    -0.029000000    -0.002000000
H     0.578000000     0.499000000    -0.473000000
C     2.726000000     0.429000000    -0.010000000
H     2.872000000     1.347000000    -0.573000000
C     3.691000000    -0.451000000     0.490000000
H     4.744000000    -0.182000000     0.452000000
C     3.339000000    -1.694000000     1.010000000
C     4.394000000    -2.607000000     1.643000000
O     5.523000000    -2.143000000     1.570000000
O     4.123000000    -3.754000000     1.999000000
