14
-87.03648
C     1.287000000    -1.800000000     1.815000000
H     1.666000000    -2.214000000     2.746000000
C     0.476000000    -0.638000000     1.804000000
H     0.246000000    -0.028000000     2.673000000
C    -0.001000000    -0.161000000     0.652000000
H    -0.794000000     0.634000000     0.701000000
C     0.336000000    -0.743000000    -0.546000000
H    -0.003000000    -0.267000000    -1.462000000
C     1.034000000    -1.931000000    -0.587000000
H     1.211000000    -2.419000000    -1.542000000
C     1.544000000    -2.456000000     0.634000000
C     2.542000000    -3.582000000     0.683000000
O     2.874000000    -4.004000000    -0.395000000
O     3.052000000    -3.954000000     1.737000000
