14
-87.41421
C    -2.046000000     1.176000000    -0.959000000
H    -3.006000000     1.186000000    -1.469000000
C    -1.481000000    -0.067000000    -0.671000000
H    -1.977000000    -0.993000000    -0.950000000
C    -0.255000000    -0.102000000    -0.118000000
H     0.219000000    -1.094000000     0.185000000
C     0.465000000     1.068000000     0.080000000
H     1.447000000     0.873000000     0.505000000
C    -0.038000000     2.321000000    -0.256000000
H     0.481000000     3.243000000    -0.007000000
C    -1.330000000     2.334000000    -0.819000000
C    -2.004000000     3.687000000    -1.099000000
O    -1.410000000     4.746000000    -0.914000000
O    -3.186000000     3.723000000    -1.362000000
