14
-87.48537
C     1.342000000    -1.998000000     1.782000000
H     1.891000000    -2.191000000     2.701000000
C     0.589000000    -0.858000000     1.452000000
H     0.457000000    -0.096000000     2.217000000
C    -0.030000000    -0.688000000     0.255000000
H    -0.739000000     0.179000000     0.046000000
C     0.167000000    -1.596000000    -0.776000000
H    -0.355000000    -1.540000000    -1.728000000
C     0.995000000    -2.661000000    -0.497000000
H     1.177000000    -3.328000000    -1.336000000
C     1.488000000    -2.969000000     0.777000000
C     2.238000000    -4.261000000     0.942000000
O     2.614000000    -4.864000000    -0.039000000
O     2.413000000    -4.684000000     2.055000000
