14
-85.42491
C     2.491000000    -1.274000000     0.980000000
H     3.155000000    -1.207000000     1.838000000
C     1.590000000    -0.186000000     0.950000000
H     1.670000000     0.640000000     1.651000000
C     0.485000000    -0.206000000     0.078000000
H    -0.346000000     0.472000000     0.263000000
C     0.391000000    -1.261000000    -0.866000000
H    -0.445000000    -1.243000000    -1.560000000
C     1.298000000    -2.306000000    -0.848000000
H     1.205000000    -3.107000000    -1.577000000
C     2.377000000    -2.358000000     0.087000000
C     3.272000000    -3.526000000     0.122000000
O     3.177000000    -4.498000000    -0.590000000
O     4.034000000    -3.614000000     1.095000000
