14
-81.80585
C     0.850000000    -2.318000000     0.309000000
H     0.532000000    -3.222000000     0.823000000
C     0.009000000    -1.162000000     0.250000000
H    -1.001000000    -1.277000000     0.634000000
C     0.368000000     0.080000000    -0.223000000
H    -0.344000000     0.907000000    -0.323000000
C     1.636000000     0.193000000    -0.755000000
H     2.055000000     1.145000000    -1.070000000
C     2.440000000    -0.958000000    -0.836000000
H     3.462000000    -0.831000000    -1.186000000
C     2.117000000    -2.178000000    -0.274000000
C     3.168000000    -3.323000000    -0.229000000
O     4.292000000    -3.107000000    -0.546000000
O     2.951000000    -4.452000000     0.185000000
