14
-74.53094
C     0.966000000    -2.435000000     0.557000000
H     0.800000000    -3.441000000     0.932000000
C     0.005000000    -1.433000000     0.574000000
H    -1.032000000    -1.607000000     0.851000000
C     0.287000000    -0.161000000    -0.066000000
H    -0.455000000     0.610000000    -0.178000000
C     1.609000000     0.137000000    -0.472000000
H     1.857000000     1.124000000    -0.853000000
C     2.557000000    -0.869000000    -0.428000000
H     3.569000000    -0.579000000    -0.698000000
C     2.235000000    -2.131000000     0.058000000
C     3.256000000    -3.267000000     0.031000000
O     4.323000000    -3.258000000    -0.545000000
O     3.158000000    -4.201000000     0.745000000
