14
-83.05811
C     0.511000000    -2.656000000     0.771000000
H     0.262000000    -3.310000000     1.604000000
C    -0.206000000    -1.464000000     0.811000000
H    -0.970000000    -1.296000000     1.565000000
C     0.144000000    -0.405000000     0.006000000
H    -0.361000000     0.596000000     0.083000000
C     1.216000000    -0.563000000    -0.801000000
H     1.483000000     0.302000000    -1.402000000
C     1.881000000    -1.783000000    -0.936000000
H     2.758000000    -1.914000000    -1.565000000
C     1.575000000    -2.858000000    -0.102000000
C     2.343000000    -4.157000000     0.021000000
O     3.171000000    -4.487000000    -0.828000000
O     2.322000000    -4.796000000     1.037000000
