14
-77.03801
C     1.025000000    -2.047000000     0.255000000
H     0.729000000    -2.883000000     0.884000000
C     0.158000000    -1.009000000    -0.055000000
H    -0.797000000    -1.090000000     0.457000000
C     0.658000000     0.065000000    -0.812000000
H     0.020000000     0.870000000    -1.012000000
C     1.881000000    -0.055000000    -1.394000000
H     2.319000000     0.744000000    -1.987000000
C     2.744000000    -1.177000000    -1.095000000
H     3.621000000    -1.360000000    -1.711000000
C     2.333000000    -2.166000000    -0.257000000
C     3.239000000    -3.372000000    -0.072000000
O     4.263000000    -3.617000000    -0.753000000
O     3.121000000    -3.927000000     0.949000000
