14
-87.85385
C     0.530000000    -2.366000000     0.682000000
H     0.350000000    -3.359000000     1.086000000
C    -0.361000000    -1.373000000     0.968000000
H    -1.236000000    -1.654000000     1.550000000
C    -0.146000000    -0.088000000     0.373000000
H    -0.845000000     0.781000000     0.556000000
C     1.005000000     0.126000000    -0.380000000
H     1.045000000     1.145000000    -0.756000000
C     1.917000000    -0.879000000    -0.650000000
H     2.826000000    -0.645000000    -1.198000000
C     1.660000000    -2.176000000    -0.133000000
C     2.627000000    -3.320000000    -0.365000000
O     3.561000000    -3.133000000    -1.094000000
O     2.575000000    -4.365000000     0.289000000
