14
-88.81560
C    -2.455000000     0.810000000    -0.374000000
H    -3.510000000     0.628000000    -0.561000000
C    -1.506000000    -0.180000000    -0.688000000
H    -1.814000000    -1.162000000    -1.039000000
C    -0.145000000     0.133000000    -0.399000000
H     0.600000000    -0.637000000    -0.711000000
C     0.217000000     1.325000000     0.136000000
H     1.266000000     1.367000000     0.419000000
C    -0.757000000     2.251000000     0.476000000
H    -0.418000000     3.196000000     0.891000000
C    -2.109000000     2.006000000     0.207000000
C    -3.082000000     3.066000000     0.463000000
O    -2.699000000     4.174000000     0.850000000
O    -4.278000000     2.872000000     0.284000000
