14
-83.38125
C     1.416000000    -1.739000000    -0.250000000
H     1.782000000    -2.733000000    -0.007000000
C     0.208000000    -1.258000000     0.296000000
H    -0.350000000    -1.888000000     0.984000000
C    -0.367000000    -0.068000000    -0.101000000
H    -1.394000000     0.289000000     0.282000000
C     0.369000000     0.791000000    -0.916000000
H    -0.024000000     1.754000000    -1.232000000
C     1.659000000     0.417000000    -1.374000000
H     2.287000000     1.067000000    -1.977000000
C     2.189000000    -0.829000000    -1.008000000
C     3.560000000    -1.305000000    -1.389000000
O     4.114000000    -0.684000000    -2.244000000
O     4.178000000    -2.117000000    -0.763000000
