14
-90.18690
C     0.623000000    -1.950000000     0.117000000
H     0.743000000    -3.001000000     0.366000000
C    -0.598000000    -1.413000000     0.440000000
H    -1.147000000    -2.088000000     1.092000000
C    -0.918000000    -0.143000000     0.054000000
H    -1.866000000     0.252000000     0.353000000
C    -0.050000000     0.641000000    -0.702000000
H    -0.323000000     1.652000000    -0.995000000
C     1.176000000     0.047000000    -1.082000000
H     1.769000000     0.605000000    -1.802000000
C     1.525000000    -1.262000000    -0.700000000
C     2.900000000    -1.823000000    -1.149000000
O     3.776000000    -0.985000000    -1.440000000
O     3.088000000    -3.008000000    -1.122000000
