14
-73.32099
C     2.500000000    -1.847000000     1.624000000
H     2.914000000    -2.745000000     2.074000000
C     1.093000000    -1.614000000     1.539000000
H     0.376000000    -2.384000000     1.811000000
C     0.642000000    -0.469000000     0.881000000
H    -0.461000000    -0.304000000     0.892000000
C     1.505000000     0.389000000     0.315000000
H     1.173000000     1.279000000    -0.213000000
C     2.937000000     0.146000000     0.494000000
H     3.722000000     0.765000000     0.066000000
C     3.397000000    -0.980000000     1.038000000
C     4.863000000    -1.282000000     1.128000000
O     5.612000000    -0.725000000     0.406000000
O     5.293000000    -2.188000000     1.770000000
