14
-88.04950
C     2.569000000    -1.613000000     1.104000000
H     2.919000000    -2.418000000     1.745000000
C     1.190000000    -1.509000000     0.879000000
H     0.536000000    -2.264000000     1.308000000
C     0.741000000    -0.482000000     0.129000000
H    -0.270000000    -0.293000000    -0.007000000
C     1.613000000     0.532000000    -0.298000000
H     1.246000000     1.412000000    -0.819000000
C     2.965000000     0.480000000    -0.034000000
H     3.623000000     1.252000000    -0.424000000
C     3.487000000    -0.626000000     0.695000000
C     5.038000000    -0.731000000     0.860000000
O     5.744000000    -0.161000000     0.034000000
O     5.537000000    -1.514000000     1.632000000
