14
-92.08211
C     1.893000000    -1.451000000     0.367000000
H     2.099000000    -2.407000000     0.841000000
C     0.566000000    -1.064000000     0.109000000
H    -0.299000000    -1.633000000     0.439000000
C     0.351000000     0.161000000    -0.550000000
H    -0.650000000     0.643000000    -0.682000000
C     1.437000000     0.958000000    -0.919000000
H     1.253000000     1.957000000    -1.304000000
C     2.729000000     0.487000000    -0.738000000
H     3.520000000     1.055000000    -1.219000000
C     2.975000000    -0.682000000    -0.010000000
C     4.358000000    -1.195000000     0.053000000
O     5.255000000    -0.687000000    -0.705000000
O     4.567000000    -2.161000000     0.785000000
