14
-87.43326
C     0.861000000    -2.183000000    -0.557000000
H     0.880000000    -3.225000000    -0.865000000
C    -0.298000000    -1.668000000    -0.049000000
H    -1.164000000    -2.322000000     0.010000000
C    -0.407000000    -0.331000000     0.315000000
H    -1.319000000     0.172000000     0.666000000
C     0.669000000     0.553000000     0.199000000
H     0.491000000     1.584000000     0.491000000
C     1.896000000     0.010000000    -0.256000000
H     2.837000000     0.528000000    -0.422000000
C     2.003000000    -1.342000000    -0.602000000
C     3.337000000    -1.961000000    -1.017000000
O     4.352000000    -1.350000000    -1.370000000
O     3.455000000    -3.187000000    -0.973000000
