14
-86.11843
C     0.572000000    -1.935000000    -1.725000000
H     0.135000000    -2.652000000    -2.416000000
C    -0.184000000    -1.386000000    -0.683000000
H    -1.195000000    -1.725000000    -0.470000000
C     0.387000000    -0.447000000     0.138000000
H    -0.144000000    -0.162000000     1.012000000
C     1.701000000    -0.050000000    -0.009000000
H     2.185000000     0.716000000     0.592000000
C     2.494000000    -0.673000000    -0.974000000
H     3.529000000    -0.430000000    -1.198000000
C     1.930000000    -1.654000000    -1.830000000
C     2.821000000    -2.327000000    -2.824000000
O     3.941000000    -1.971000000    -2.939000000
O     2.447000000    -3.336000000    -3.404000000
