14
-87.33717
C    -0.273000000    -2.386000000     0.329000000
H    -0.891000000    -3.279000000     0.377000000
C    -0.900000000    -1.098000000     0.430000000
H    -1.971000000    -1.057000000     0.606000000
C    -0.189000000     0.085000000     0.413000000
H    -0.786000000     0.962000000     0.725000000
C     1.207000000     0.017000000     0.292000000
H     1.871000000     0.877000000     0.262000000
C     1.836000000    -1.267000000     0.252000000
H     2.917000000    -1.388000000     0.256000000
C     1.105000000    -2.422000000     0.182000000
C     1.929000000    -3.799000000     0.063000000
O     3.162000000    -3.743000000    -0.083000000
O     1.373000000    -4.881000000    -0.061000000
