14
-88.02564
C     0.580000000    -1.931000000    -0.810000000
H     0.720000000    -2.965000000    -1.117000000
C    -0.455000000    -1.544000000     0.016000000
H    -1.233000000    -2.278000000     0.210000000
C    -0.449000000    -0.210000000     0.449000000
H    -1.219000000     0.051000000     1.162000000
C     0.543000000     0.702000000     0.032000000
H     0.355000000     1.745000000     0.275000000
C     1.644000000     0.310000000    -0.710000000
H     2.367000000     1.059000000    -1.023000000
C     1.616000000    -1.015000000    -1.178000000
C     2.686000000    -1.477000000    -2.148000000
O     3.541000000    -0.676000000    -2.472000000
O     2.671000000    -2.568000000    -2.735000000
