14
-72.38049
C     0.134000000    -2.330000000    -1.037000000
H    -0.317000000    -3.292000000    -1.264000000
C    -0.653000000    -1.495000000    -0.288000000
H    -1.667000000    -1.746000000     0.015000000
C    -0.250000000    -0.161000000    -0.098000000
H    -0.880000000     0.512000000     0.472000000
C     1.004000000     0.210000000    -0.526000000
H     1.319000000     1.230000000    -0.321000000
C     1.836000000    -0.695000000    -1.252000000
H     2.838000000    -0.418000000    -1.569000000
C     1.329000000    -1.941000000    -1.504000000
C     2.120000000    -2.862000000    -2.356000000
O     3.322000000    -2.769000000    -2.436000000
O     1.704000000    -3.964000000    -2.568000000
