14
-89.58826
C    -2.441000000     0.657000000    -0.286000000
H    -3.480000000     0.603000000    -0.602000000
C    -1.565000000    -0.367000000    -0.661000000
H    -1.893000000    -1.146000000    -1.345000000
C    -0.254000000    -0.282000000    -0.282000000
H     0.409000000    -1.018000000    -0.719000000
C     0.265000000     0.786000000     0.385000000
H     1.330000000     0.833000000     0.597000000
C    -0.577000000     1.901000000     0.657000000
H    -0.220000000     2.733000000     1.258000000
C    -1.938000000     1.828000000     0.378000000
C    -2.892000000     2.969000000     0.807000000
O    -2.420000000     4.098000000     0.972000000
O    -4.132000000     2.826000000     0.817000000
