14
-85.24759
C     0.275000000    -2.068000000    -1.388000000
H     0.302000000    -3.101000000    -1.725000000
C    -0.833000000    -1.543000000    -0.689000000
H    -1.749000000    -2.116000000    -0.564000000
C    -0.753000000    -0.266000000    -0.150000000
H    -1.632000000     0.134000000     0.362000000
C     0.371000000     0.493000000    -0.359000000
H     0.253000000     1.500000000     0.032000000
C     1.504000000     0.022000000    -1.031000000
H     2.306000000     0.717000000    -1.267000000
C     1.423000000    -1.284000000    -1.576000000
C     2.631000000    -1.780000000    -2.311000000
O     3.504000000    -1.032000000    -2.672000000
O     2.842000000    -2.962000000    -2.378000000
