14
-80.57617
C    -0.020000000    -2.134000000    -0.222000000
H    -0.669000000    -2.951000000     0.082000000
C    -0.419000000    -0.836000000     0.130000000
H    -1.426000000    -0.673000000     0.507000000
C     0.469000000     0.220000000    -0.048000000
H     0.082000000     1.253000000     0.102000000
C     1.763000000     0.032000000    -0.617000000
H     2.480000000     0.849000000    -0.630000000
C     2.200000000    -1.280000000    -0.792000000
H     3.149000000    -1.515000000    -1.268000000
C     1.363000000    -2.407000000    -0.555000000
C     1.942000000    -3.790000000    -0.579000000
O     3.074000000    -3.958000000    -1.034000000
O     1.296000000    -4.792000000    -0.407000000
