14
-80.25102
C     0.162000000    -2.016000000    -1.137000000
H    -0.013000000    -3.018000000    -1.521000000
C    -0.929000000    -1.313000000    -0.706000000
H    -1.913000000    -1.743000000    -0.875000000
C    -0.699000000    -0.037000000    -0.174000000
H    -1.653000000     0.516000000    -0.059000000
C     0.539000000     0.505000000    -0.090000000
H     0.699000000     1.525000000     0.250000000
C     1.665000000    -0.250000000    -0.454000000
H     2.636000000     0.210000000    -0.288000000
C     1.528000000    -1.601000000    -0.950000000
C     2.643000000    -2.559000000    -1.227000000
O     3.752000000    -2.232000000    -1.616000000
O     2.534000000    -3.733000000    -0.925000000
