14
-87.67646
C     0.181000000    -2.220000000    -0.785000000
H    -0.226000000    -3.225000000    -0.868000000
C    -0.644000000    -1.122000000    -0.519000000
H    -1.722000000    -1.222000000    -0.613000000
C     0.001000000     0.151000000    -0.209000000
H    -0.556000000     1.054000000    -0.080000000
C     1.369000000     0.235000000    -0.257000000
H     1.843000000     1.196000000    -0.075000000
C     2.151000000    -0.840000000    -0.552000000
H     3.216000000    -0.695000000    -0.713000000
C     1.574000000    -2.079000000    -0.832000000
C     2.466000000    -3.240000000    -1.328000000
O     3.663000000    -3.098000000    -1.353000000
O     1.977000000    -4.336000000    -1.504000000
