14
-86.99906
C    -0.772000000    -2.877000000    -0.537000000
H    -1.544000000    -3.620000000    -0.723000000
C    -1.256000000    -1.527000000    -0.417000000
H    -2.295000000    -1.351000000    -0.682000000
C    -0.405000000    -0.450000000    -0.235000000
H    -0.792000000     0.588000000    -0.422000000
C     0.927000000    -0.679000000     0.022000000
H     1.531000000     0.204000000     0.217000000
C     1.434000000    -2.008000000     0.052000000
H     2.501000000    -2.135000000     0.216000000
C     0.611000000    -3.108000000    -0.298000000
C     1.314000000    -4.425000000    -0.497000000
O     2.449000000    -4.522000000    -0.093000000
O     0.804000000    -5.307000000    -1.165000000
