14
-82.17488
C    -2.777000000     0.547000000    -0.184000000
H    -3.695000000     0.118000000    -0.578000000
C    -1.555000000    -0.054000000    -0.363000000
H    -1.516000000    -1.036000000    -0.827000000
C    -0.399000000     0.527000000     0.193000000
H     0.567000000     0.027000000     0.248000000
C    -0.510000000     1.741000000     0.812000000
H     0.378000000     2.338000000     1.007000000
C    -1.713000000     2.393000000     0.944000000
H    -1.719000000     3.385000000     1.388000000
C    -2.904000000     1.813000000     0.404000000
C    -4.159000000     2.653000000     0.265000000
O    -4.188000000     3.758000000     0.762000000
O    -5.156000000     2.228000000    -0.214000000
