14
-87.03118
C    -1.312000000    -2.294000000    -2.235000000
H    -2.031000000    -3.013000000    -2.620000000
C    -1.610000000    -1.409000000    -1.190000000
H    -2.630000000    -1.342000000    -0.818000000
C    -0.627000000    -0.568000000    -0.585000000
H    -0.936000000     0.207000000     0.129000000
C     0.699000000    -0.726000000    -0.929000000
H     1.450000000    -0.143000000    -0.401000000
C     1.035000000    -1.578000000    -2.002000000
H     2.073000000    -1.616000000    -2.321000000
C     0.013000000    -2.324000000    -2.703000000
C     0.383000000    -3.359000000    -3.779000000
O     1.517000000    -3.429000000    -4.262000000
O    -0.478000000    -4.008000000    -4.344000000
