14
-83.89106
C    -0.959000000    -1.695000000     0.964000000
H    -0.642000000    -2.621000000     1.436000000
C     0.076000000    -0.790000000     0.726000000
H     1.146000000    -0.970000000     0.794000000
C    -0.214000000     0.353000000    -0.027000000
H     0.603000000     1.013000000    -0.303000000
C    -1.525000000     0.651000000    -0.413000000
H    -1.821000000     1.611000000    -0.827000000
C    -2.527000000    -0.120000000     0.108000000
H    -3.553000000     0.207000000    -0.040000000
C    -2.279000000    -1.329000000     0.747000000
C    -3.421000000    -2.162000000     1.200000000
O    -4.535000000    -1.827000000     0.908000000
O    -3.223000000    -3.184000000     1.826000000
