14
-77.20021
C    -0.807000000    -2.412000000    -1.766000000
H    -1.565000000    -2.416000000    -2.545000000
C    -0.911000000    -1.545000000    -0.634000000
H    -1.739000000    -0.847000000    -0.542000000
C     0.195000000    -1.493000000     0.269000000
H     0.362000000    -0.622000000     0.930000000
C     1.251000000    -2.316000000     0.115000000
H     1.936000000    -2.362000000     0.958000000
C     1.332000000    -3.197000000    -0.966000000
H     2.300000000    -3.641000000    -1.181000000
C     0.346000000    -3.266000000    -1.912000000
C     0.521000000    -4.108000000    -3.166000000
O     1.440000000    -4.821000000    -3.183000000
O    -0.216000000    -4.037000000    -4.149000000
