14
-88.67379
C    -1.415000000    -1.666000000    -0.968000000
H    -2.176000000    -2.335000000    -1.360000000
C    -1.746000000    -0.430000000    -0.432000000
H    -2.771000000    -0.079000000    -0.511000000
C    -0.750000000     0.438000000     0.071000000
H    -1.022000000     1.368000000     0.488000000
C     0.589000000    -0.020000000     0.157000000
H     1.328000000     0.685000000     0.531000000
C     0.931000000    -1.259000000    -0.408000000
H     1.959000000    -1.547000000    -0.612000000
C    -0.077000000    -2.052000000    -0.978000000
C     0.314000000    -3.420000000    -1.617000000
O     1.413000000    -3.935000000    -1.457000000
O    -0.398000000    -3.952000000    -2.506000000
