14
-81.40495
C    -3.022000000     0.347000000    -0.586000000
H    -3.848000000     0.465000000    -1.282000000
C    -2.031000000    -0.590000000    -0.879000000
H    -2.046000000    -1.180000000    -1.791000000
C    -0.910000000    -0.621000000    -0.044000000
H    -0.025000000    -1.106000000    -0.469000000
C    -0.928000000     0.101000000     1.117000000
H     0.000000000     0.171000000     1.679000000
C    -1.954000000     1.000000000     1.395000000
H    -1.882000000     1.720000000     2.206000000
C    -2.950000000     1.157000000     0.490000000
C    -3.880000000     2.273000000     0.625000000
O    -3.503000000     3.406000000     0.953000000
O    -5.053000000     2.142000000     0.328000000
