14
-81.71390
C    -1.222000000    -1.618000000    -1.193000000
H    -1.846000000    -2.261000000    -1.808000000
C    -1.675000000    -0.444000000    -0.606000000
H    -2.748000000    -0.274000000    -0.636000000
C    -0.769000000     0.373000000     0.048000000
H    -1.055000000     1.246000000     0.585000000
C     0.555000000     0.090000000     0.023000000
H     1.271000000     0.730000000     0.534000000
C     1.015000000    -1.090000000    -0.529000000
H     2.074000000    -1.311000000    -0.635000000
C     0.122000000    -1.964000000    -1.149000000
C     0.541000000    -3.171000000    -1.814000000
O     1.746000000    -3.459000000    -1.792000000
O    -0.189000000    -4.028000000    -2.228000000
