14
-85.32188
C    -1.225000000    -0.949000000    -1.311000000
H    -2.034000000    -1.538000000    -1.733000000
C    -1.433000000    -0.085000000    -0.229000000
H    -2.415000000    -0.031000000     0.235000000
C    -0.407000000     0.732000000     0.317000000
H    -0.646000000     1.323000000     1.192000000
C     0.856000000     0.614000000    -0.136000000
H     1.608000000     1.215000000     0.369000000
C     1.127000000    -0.407000000    -1.033000000
H     2.138000000    -0.681000000    -1.322000000
C     0.105000000    -1.147000000    -1.674000000
C     0.387000000    -2.112000000    -2.776000000
O     1.563000000    -2.299000000    -3.042000000
O    -0.443000000    -2.784000000    -3.366000000
