14
-85.65732
C    -0.985000000    -1.436000000    -1.859000000
H    -1.829000000    -1.947000000    -2.315000000
C    -1.265000000    -0.425000000    -0.909000000
H    -2.285000000    -0.137000000    -0.671000000
C    -0.195000000     0.150000000    -0.279000000
H    -0.385000000     0.979000000     0.405000000
C     1.104000000    -0.118000000    -0.638000000
H     1.957000000     0.369000000    -0.174000000
C     1.372000000    -1.247000000    -1.460000000
H     2.381000000    -1.507000000    -1.771000000
C     0.266000000    -1.957000000    -2.059000000
C     0.525000000    -3.087000000    -3.072000000
O     1.468000000    -3.837000000    -2.845000000
O    -0.365000000    -3.479000000    -3.886000000
