14
-88.39041
C    -1.253000000    -1.131000000    -1.742000000
H    -2.087000000    -1.466000000    -2.352000000
C    -1.522000000    -0.370000000    -0.608000000
H    -2.534000000    -0.055000000    -0.367000000
C    -0.458000000     0.135000000     0.186000000
H    -0.671000000     0.714000000     1.119000000
C     0.891000000    -0.130000000    -0.217000000
H     1.751000000     0.230000000     0.341000000
C     1.069000000    -0.980000000    -1.340000000
H     2.071000000    -1.328000000    -1.580000000
C     0.049000000    -1.485000000    -2.105000000
C     0.297000000    -2.511000000    -3.222000000
O     1.419000000    -2.890000000    -3.539000000
O    -0.624000000    -2.653000000    -4.037000000
