14
-84.59179
C    -0.688000000    -1.142000000    -1.753000000
H    -1.605000000    -1.591000000    -2.126000000
C    -0.855000000    -0.441000000    -0.601000000
H    -1.841000000    -0.225000000    -0.197000000
C     0.270000000     0.189000000     0.017000000
H     0.064000000     0.788000000     0.919000000
C     1.542000000     0.123000000    -0.614000000
H     2.405000000     0.640000000    -0.201000000
C     1.659000000    -0.593000000    -1.822000000
H     2.608000000    -0.727000000    -2.335000000
C     0.570000000    -1.279000000    -2.421000000
C     0.728000000    -1.869000000    -3.751000000
O     1.818000000    -1.920000000    -4.205000000
O    -0.238000000    -2.473000000    -4.241000000
