14
-82.66706
C    -0.433000000    -1.202000000    -1.642000000
H    -0.844000000    -1.031000000    -2.634000000
C    -0.445000000    -0.037000000    -0.883000000
H    -0.784000000     0.867000000    -1.382000000
C    -0.047000000    -0.115000000     0.477000000
H     0.096000000     0.748000000     1.148000000
C     0.494000000    -1.327000000     0.928000000
H     0.824000000    -1.434000000     1.958000000
C     0.485000000    -2.491000000     0.168000000
H     0.875000000    -3.377000000     0.661000000
C    -0.043000000    -2.454000000    -1.138000000
C    -0.158000000    -3.679000000    -2.002000000
O     0.250000000    -4.732000000    -1.563000000
O    -0.467000000    -3.626000000    -3.148000000
