14
-88.69843
C    -0.182000000    -2.172000000    -1.272000000
H    -0.903000000    -2.971000000    -1.422000000
C    -0.656000000    -1.190000000    -0.406000000
H    -1.662000000    -1.267000000     0.000000000
C     0.192000000    -0.188000000    -0.043000000
H    -0.145000000     0.582000000     0.551000000
C     1.482000000    -0.140000000    -0.619000000
H     2.169000000     0.660000000    -0.352000000
C     1.974000000    -1.108000000    -1.531000000
H     2.972000000    -1.075000000    -1.962000000
C     1.081000000    -2.136000000    -1.809000000
C     1.604000000    -3.317000000    -2.614000000
O     2.782000000    -3.312000000    -2.994000000
O     0.883000000    -4.233000000    -2.996000000
