14
-88.06214
C    -0.488000000    -1.225000000    -1.458000000
H    -1.174000000    -1.911000000    -1.949000000
C    -0.987000000    -0.502000000    -0.324000000
H    -2.027000000    -0.667000000    -0.056000000
C    -0.127000000     0.383000000     0.332000000
H    -0.544000000     0.975000000     1.205000000
C     1.160000000     0.712000000    -0.178000000
H     1.823000000     1.378000000     0.367000000
C     1.643000000    -0.014000000    -1.273000000
H     2.653000000     0.169000000    -1.631000000
C     0.837000000    -0.967000000    -1.927000000
C     1.305000000    -1.541000000    -3.231000000
O     2.484000000    -1.815000000    -3.367000000
O     0.544000000    -1.754000000    -4.149000000
