14
-81.79129
C    -2.589000000    -0.076000000     0.026000000
H    -3.516000000    -0.633000000     0.134000000
C    -1.387000000    -0.769000000    -0.156000000
H    -1.292000000    -1.845000000    -0.281000000
C    -0.173000000    -0.019000000     0.036000000
H     0.730000000    -0.490000000     0.085000000
C    -0.240000000     1.361000000     0.357000000
H     0.623000000     2.020000000     0.401000000
C    -1.463000000     1.996000000     0.511000000
H    -1.442000000     3.072000000     0.660000000
C    -2.629000000     1.281000000     0.451000000
C    -3.997000000     1.916000000     0.578000000
O    -4.082000000     3.012000000     1.038000000
O    -5.007000000     1.355000000     0.212000000
