14
-92.47777
C     0.732000000    -1.032000000    -1.405000000
H     0.415000000    -1.982000000    -1.826000000
C    -0.141000000    -0.385000000    -0.470000000
H    -1.132000000    -0.789000000    -0.278000000
C     0.318000000     0.790000000     0.111000000
H    -0.237000000     1.258000000     0.878000000
C     1.570000000     1.309000000    -0.197000000
H     1.955000000     2.183000000     0.323000000
C     2.455000000     0.669000000    -1.045000000
H     3.386000000     1.110000000    -1.390000000
C     2.039000000    -0.518000000    -1.690000000
C     2.939000000    -1.345000000    -2.570000000
O     4.056000000    -0.836000000    -2.797000000
O     2.586000000    -2.397000000    -3.063000000
