14
-79.25515
C     0.651000000    -0.659000000    -1.934000000
H     0.449000000    -1.183000000    -2.865000000
C    -0.297000000    -0.241000000    -1.076000000
H    -1.303000000    -0.650000000    -1.135000000
C     0.126000000     0.470000000     0.060000000
H    -0.675000000     0.671000000     0.805000000
C     1.461000000     0.716000000     0.258000000
H     1.786000000     1.207000000     1.171000000
C     2.456000000     0.290000000    -0.678000000
H     3.529000000     0.404000000    -0.552000000
C     2.023000000    -0.363000000    -1.769000000
C     2.949000000    -0.836000000    -2.868000000
O     4.120000000    -0.530000000    -2.957000000
O     2.620000000    -1.656000000    -3.703000000
