14
-88.97477
C     0.435000000    -0.680000000    -1.508000000
H    -0.017000000    -1.270000000    -2.301000000
C    -0.326000000    -0.073000000    -0.515000000
H    -1.406000000     0.052000000    -0.509000000
C     0.345000000     0.535000000     0.553000000
H    -0.142000000     1.172000000     1.292000000
C     1.740000000     0.560000000     0.567000000
H     2.290000000     1.121000000     1.318000000
C     2.498000000    -0.116000000    -0.407000000
H     3.584000000    -0.127000000    -0.355000000
C     1.865000000    -0.740000000    -1.454000000
C     2.724000000    -1.364000000    -2.557000000
O     3.894000000    -1.085000000    -2.713000000
O     2.234000000    -2.161000000    -3.370000000
