14
-82.09765
C     0.830000000    -2.038000000    -1.679000000
H     0.859000000    -2.849000000    -2.402000000
C    -0.345000000    -1.388000000    -1.546000000
H    -1.247000000    -1.645000000    -2.095000000
C    -0.491000000    -0.449000000    -0.538000000
H    -1.442000000    -0.037000000    -0.524000000
C     0.561000000     0.019000000     0.253000000
H     0.508000000     0.800000000     1.008000000
C     1.772000000    -0.740000000     0.161000000
H     2.638000000    -0.551000000     0.790000000
C     1.847000000    -1.816000000    -0.768000000
C     3.146000000    -2.468000000    -1.006000000
O     4.012000000    -2.329000000    -0.149000000
O     3.444000000    -2.844000000    -2.136000000
