14
-85.64347
C     1.591000000     0.300000000    -1.731000000
H     2.229000000     0.745000000    -2.491000000
C     0.327000000     0.756000000    -1.472000000
H     0.027000000     1.616000000    -2.065000000
C    -0.479000000     0.247000000    -0.428000000
H    -1.469000000     0.683000000    -0.178000000
C     0.024000000    -0.782000000     0.321000000
H    -0.453000000    -1.026000000     1.267000000
C     1.288000000    -1.350000000     0.036000000
H     1.715000000    -2.122000000     0.672000000
C     2.071000000    -0.775000000    -0.956000000
C     3.457000000    -1.291000000    -1.214000000
O     3.932000000    -2.199000000    -0.548000000
O     4.152000000    -0.993000000    -2.202000000
