14
-83.39396
C    -2.679000000     0.434000000    -0.373000000
H    -3.720000000     0.119000000    -0.363000000
C    -1.582000000    -0.221000000    -0.765000000
H    -1.655000000    -1.261000000    -1.070000000
C    -0.302000000     0.371000000    -0.780000000
H     0.589000000    -0.227000000    -1.000000000
C    -0.203000000     1.681000000    -0.273000000
H     0.805000000     2.085000000    -0.228000000
C    -1.284000000     2.409000000     0.245000000
H    -1.298000000     3.441000000     0.586000000
C    -2.573000000     1.761000000     0.123000000
C    -3.769000000     2.601000000     0.544000000
O    -3.754000000     3.533000000     1.312000000
O    -4.866000000     2.351000000     0.016000000
