14
-85.14095
C     1.833000000     0.387000000    -0.931000000
H     2.362000000     0.976000000    -1.676000000
C     0.492000000     0.637000000    -0.575000000
H    -0.025000000     1.472000000    -1.041000000
C    -0.188000000    -0.262000000     0.274000000
H    -1.223000000    -0.111000000     0.570000000
C     0.517000000    -1.315000000     0.869000000
H    -0.015000000    -2.030000000     1.492000000
C     1.802000000    -1.581000000     0.469000000
H     2.238000000    -2.510000000     0.827000000
C     2.471000000    -0.751000000    -0.387000000
C     3.855000000    -1.206000000    -0.789000000
O     4.296000000    -2.347000000    -0.663000000
O     4.600000000    -0.477000000    -1.447000000
