14
-83.35892
C    -0.182000000    -1.083000000    -3.041000000
H    -0.843000000    -1.255000000    -3.887000000
C    -0.784000000    -0.699000000    -1.866000000
H    -1.870000000    -0.651000000    -1.892000000
C     0.040000000    -0.588000000    -0.826000000
H    -0.312000000    -0.380000000     0.119000000
C     1.381000000    -0.715000000    -0.949000000
H     1.901000000    -0.589000000    -0.002000000
C     2.000000000    -1.012000000    -2.148000000
H     3.068000000    -1.146000000    -2.299000000
C     1.164000000    -1.265000000    -3.256000000
C     1.721000000    -1.609000000    -4.619000000
O     2.913000000    -1.888000000    -4.724000000
O     0.985000000    -1.574000000    -5.580000000
