14
-91.27098
C    -1.027000000    -1.296000000    -2.038000000
H    -1.939000000    -1.857000000    -2.227000000
C    -0.858000000    -0.577000000    -0.851000000
H    -1.666000000    -0.542000000    -0.125000000
C     0.352000000    -0.022000000    -0.495000000
H     0.524000000     0.487000000     0.416000000
C     1.425000000     0.016000000    -1.387000000
H     2.368000000     0.440000000    -1.053000000
C     1.266000000    -0.662000000    -2.583000000
H     2.075000000    -0.796000000    -3.297000000
C     0.024000000    -1.312000000    -2.967000000
C    -0.052000000    -2.064000000    -4.276000000
O     0.890000000    -2.093000000    -5.070000000
O    -1.049000000    -2.731000000    -4.473000000
