14
-86.09338
C    -0.704000000    -0.879000000    -2.570000000
H    -1.462000000    -1.360000000    -3.183000000
C    -0.904000000    -0.633000000    -1.236000000
H    -1.900000000    -0.894000000    -0.886000000
C     0.055000000    -0.046000000    -0.400000000
H    -0.153000000     0.106000000     0.716000000
C     1.276000000     0.161000000    -0.926000000
H     2.049000000     0.685000000    -0.369000000
C     1.501000000    -0.018000000    -2.289000000
H     2.434000000     0.345000000    -2.712000000
C     0.524000000    -0.549000000    -3.120000000
C     0.824000000    -0.752000000    -4.636000000
O     1.954000000    -1.095000000    -4.929000000
O    -0.034000000    -0.707000000    -5.470000000
