14
-83.72779
C    -0.512000000    -0.714000000    -2.084000000
H    -1.086000000    -1.238000000    -2.844000000
C    -0.951000000    -0.889000000    -0.832000000
H    -1.729000000    -1.646000000    -0.761000000
C    -0.407000000    -0.148000000     0.233000000
H    -0.678000000    -0.340000000     1.317000000
C     0.682000000     0.655000000    -0.036000000
H     1.249000000     1.157000000     0.743000000
C     1.258000000     0.765000000    -1.342000000
H     2.150000000     1.370000000    -1.478000000
C     0.630000000     0.048000000    -2.433000000
C     1.102000000     0.231000000    -3.863000000
O     2.053000000     1.011000000    -4.019000000
O     0.381000000    -0.077000000    -4.801000000
