14
-87.97614
C    -0.948000000    -1.013000000    -1.591000000
H    -1.913000000    -1.441000000    -1.849000000
C    -0.762000000    -0.367000000    -0.355000000
H    -1.560000000    -0.333000000     0.382000000
C     0.427000000     0.267000000    -0.010000000
H     0.509000000     0.741000000     0.908000000
C     1.443000000     0.228000000    -0.926000000
H     2.416000000     0.671000000    -0.732000000
C     1.227000000    -0.304000000    -2.232000000
H     2.063000000    -0.323000000    -2.927000000
C     0.072000000    -0.938000000    -2.552000000
C    -0.075000000    -1.448000000    -3.961000000
O     0.770000000    -1.311000000    -4.867000000
O    -1.105000000    -2.014000000    -4.267000000
