14
-87.79944
C    -1.052000000    -1.422000000     1.581000000
H    -1.198000000    -2.198000000     2.328000000
C     0.276000000    -1.100000000     1.201000000
H     1.046000000    -1.537000000     1.831000000
C     0.418000000    -0.127000000     0.205000000
H     1.397000000     0.322000000     0.015000000
C    -0.684000000     0.270000000    -0.526000000
H    -0.527000000     0.988000000    -1.327000000
C    -1.980000000    -0.001000000    -0.071000000
H    -2.832000000     0.401000000    -0.613000000
C    -2.187000000    -0.881000000     1.002000000
C    -3.590000000    -1.355000000     1.390000000
O    -4.550000000    -0.965000000     0.754000000
O    -3.772000000    -1.926000000     2.452000000
