14
-82.41450
C    -0.216000000    -1.331000000    -0.083000000
H    -0.298000000    -2.190000000     0.578000000
C     0.036000000    -0.089000000     0.515000000
H    -0.005000000     0.136000000     1.577000000
C     0.217000000     0.986000000    -0.295000000
H     0.375000000     1.978000000     0.067000000
C     0.318000000     0.839000000    -1.623000000
H     0.454000000     1.653000000    -2.330000000
C     0.034000000    -0.379000000    -2.196000000
H    -0.147000000    -0.401000000    -3.268000000
C    -0.300000000    -1.477000000    -1.421000000
C    -0.684000000    -2.834000000    -2.007000000
O    -0.688000000    -2.920000000    -3.206000000
O    -1.136000000    -3.692000000    -1.279000000
