14
-79.77442
C    -0.559000000    -2.136000000    -0.116000000
H    -0.653000000    -3.102000000     0.374000000
C    -0.323000000    -0.947000000     0.569000000
H    -0.474000000    -0.862000000     1.643000000
C     0.151000000     0.184000000     0.020000000
H     0.408000000     0.973000000     0.686000000
C     0.194000000     0.252000000    -1.390000000
H     0.550000000     1.176000000    -1.840000000
C     0.001000000    -0.959000000    -2.082000000
H     0.001000000    -1.042000000    -3.166000000
C    -0.365000000    -2.150000000    -1.492000000
C    -0.586000000    -3.420000000    -2.242000000
O    -0.454000000    -3.465000000    -3.471000000
O    -0.678000000    -4.522000000    -1.708000000
