14
-78.47682
C    -0.054000000    -2.173000000    -0.614000000
H    -0.100000000    -3.245000000    -0.440000000
C    -0.018000000    -1.389000000     0.455000000
H     0.110000000    -1.964000000     1.369000000
C    -0.055000000    -0.028000000     0.319000000
H    -0.116000000     0.577000000     1.250000000
C    -0.035000000     0.529000000    -0.960000000
H     0.082000000     1.584000000    -1.192000000
C     0.141000000    -0.266000000    -2.064000000
H     0.222000000     0.168000000    -3.057000000
C     0.042000000    -1.640000000    -1.944000000
C     0.144000000    -2.536000000    -3.166000000
O     0.210000000    -2.154000000    -4.322000000
O     0.327000000    -3.703000000    -2.949000000
