14
-92.98197
C    -2.277000000     0.421000000    -0.513000000
H    -3.284000000     0.301000000    -0.905000000
C    -1.536000000    -0.713000000    -0.307000000
H    -1.977000000    -1.702000000    -0.402000000
C    -0.160000000    -0.627000000     0.067000000
H     0.356000000    -1.557000000     0.145000000
C     0.506000000     0.629000000     0.176000000
H     1.553000000     0.677000000     0.465000000
C    -0.334000000     1.749000000     0.019000000
H     0.099000000     2.739000000     0.135000000
C    -1.680000000     1.695000000    -0.365000000
C    -2.479000000     2.932000000    -0.529000000
O    -1.867000000     3.996000000    -0.596000000
O    -3.707000000     2.842000000    -0.695000000
