14
-85.10352
C    -0.253000000    -1.858000000    -0.287000000
H    -0.127000000    -2.728000000     0.352000000
C    -0.147000000    -0.592000000     0.276000000
H     0.278000000    -0.442000000     1.265000000
C    -0.298000000     0.494000000    -0.493000000
H    -0.130000000     1.447000000    -0.042000000
C    -0.520000000     0.412000000    -1.839000000
H    -0.722000000     1.268000000    -2.477000000
C    -0.689000000    -0.875000000    -2.368000000
H    -0.855000000    -1.061000000    -3.426000000
C    -0.608000000    -1.995000000    -1.611000000
C    -0.668000000    -3.401000000    -2.190000000
O    -1.096000000    -3.584000000    -3.348000000
O    -0.389000000    -4.356000000    -1.512000000
