14
-89.39383
C    -2.221000000     0.481000000    -0.028000000
H    -3.283000000     0.484000000    -0.257000000
C    -1.541000000    -0.693000000     0.058000000
H    -2.062000000    -1.634000000    -0.099000000
C    -0.142000000    -0.645000000     0.349000000
H     0.448000000    -1.580000000     0.383000000
C     0.479000000     0.604000000     0.602000000
H     1.531000000     0.687000000     0.865000000
C    -0.285000000     1.743000000     0.506000000
H     0.065000000     2.753000000     0.705000000
C    -1.642000000     1.746000000     0.125000000
C    -2.381000000     2.995000000    -0.123000000
O    -1.744000000     4.042000000    -0.251000000
O    -3.575000000     2.979000000    -0.253000000
