14
-86.11062
C    -1.072000000    -2.451000000     0.440000000
H    -1.013000000    -3.371000000     1.017000000
C    -0.068000000    -1.490000000     0.601000000
H     0.756000000    -1.664000000     1.287000000
C    -0.072000000    -0.368000000    -0.180000000
H     0.756000000     0.303000000    -0.234000000
C    -1.092000000    -0.193000000    -1.144000000
H    -1.075000000     0.706000000    -1.755000000
C    -2.149000000    -1.111000000    -1.177000000
H    -2.985000000    -0.884000000    -1.833000000
C    -2.044000000    -2.373000000    -0.520000000
C    -3.083000000    -3.454000000    -0.714000000
O    -3.977000000    -3.319000000    -1.530000000
O    -2.975000000    -4.505000000    -0.148000000
