14
-75.41455
C    -1.172000000    -2.725000000    -0.380000000
H    -1.157000000    -3.812000000    -0.403000000
C     0.010000000    -2.107000000     0.060000000
H     0.899000000    -2.684000000     0.299000000
C     0.064000000    -0.752000000     0.208000000
H     1.022000000    -0.233000000     0.607000000
C    -1.066000000     0.006000000     0.052000000
H    -0.986000000     1.018000000     0.439000000
C    -2.237000000    -0.510000000    -0.545000000
H    -3.119000000     0.125000000    -0.546000000
C    -2.242000000    -1.943000000    -0.799000000
C    -3.494000000    -2.550000000    -1.269000000
O    -4.308000000    -1.873000000    -1.846000000
O    -3.606000000    -3.750000000    -1.403000000
