14
-84.23715
C    -1.425000000    -1.551000000     0.003000000
H    -1.547000000    -2.504000000     0.511000000
C    -0.285000000    -0.846000000     0.386000000
H     0.389000000    -1.287000000     1.116000000
C     0.035000000     0.338000000    -0.276000000
H     0.879000000     1.024000000     0.005000000
C    -0.784000000     0.858000000    -1.260000000
H    -0.532000000     1.810000000    -1.720000000
C    -1.894000000     0.080000000    -1.645000000
H    -2.582000000     0.497000000    -2.376000000
C    -2.158000000    -1.192000000    -1.107000000
C    -3.370000000    -2.111000000    -1.603000000
O    -4.028000000    -1.856000000    -2.579000000
O    -3.489000000    -3.184000000    -1.075000000
