14
-82.77013
C    -1.818000000    -2.171000000    -0.379000000
H    -1.896000000    -3.235000000    -0.175000000
C    -0.660000000    -1.477000000    -0.106000000
H     0.221000000    -1.869000000     0.395000000
C    -0.592000000    -0.085000000    -0.413000000
H     0.323000000     0.545000000    -0.236000000
C    -1.651000000     0.513000000    -1.138000000
H    -1.575000000     1.573000000    -1.369000000
C    -2.804000000    -0.129000000    -1.381000000
H    -3.580000000     0.452000000    -1.874000000
C    -2.916000000    -1.517000000    -1.046000000
C    -4.137000000    -2.309000000    -1.512000000
O    -5.083000000    -1.707000000    -1.965000000
O    -4.107000000    -3.507000000    -1.647000000
