14
-77.44561
C    -1.656000000    -2.149000000    -0.785000000
H    -2.007000000    -3.176000000    -0.848000000
C    -0.548000000    -1.817000000     0.045000000
H    -0.102000000    -2.685000000     0.525000000
C    -0.164000000    -0.507000000     0.228000000
H     0.659000000    -0.255000000     0.920000000
C    -0.613000000     0.386000000    -0.685000000
H    -0.133000000     1.361000000    -0.659000000
C    -1.691000000     0.114000000    -1.584000000
H    -2.198000000     0.849000000    -2.205000000
C    -2.316000000    -1.118000000    -1.560000000
C    -3.558000000    -1.439000000    -2.441000000
O    -3.633000000    -0.893000000    -3.502000000
O    -4.286000000    -2.412000000    -2.278000000
