14
-89.93096
C    -0.928000000    -1.365000000     0.387000000
H    -0.985000000    -2.132000000     1.156000000
C    -0.301000000    -0.166000000     0.633000000
H     0.237000000     0.068000000     1.548000000
C    -0.293000000     0.840000000    -0.315000000
H     0.180000000     1.833000000    -0.138000000
C    -0.874000000     0.660000000    -1.616000000
H    -0.798000000     1.447000000    -2.363000000
C    -1.391000000    -0.600000000    -1.962000000
H    -1.832000000    -0.724000000    -2.948000000
C    -1.388000000    -1.601000000    -0.945000000
C    -1.892000000    -3.051000000    -1.195000000
O    -2.318000000    -3.343000000    -2.314000000
O    -1.955000000    -3.912000000    -0.278000000
