14
-83.65472
C    -2.243000000     0.816000000    -0.697000000
H    -3.272000000     0.750000000    -1.040000000
C    -1.376000000    -0.315000000    -0.639000000
H    -1.715000000    -1.267000000    -1.039000000
C    -0.038000000    -0.189000000    -0.236000000
H     0.536000000    -1.114000000    -0.239000000
C     0.376000000     0.992000000     0.346000000
H     1.364000000     1.275000000     0.701000000
C    -0.477000000     2.112000000     0.238000000
H    -0.085000000     3.079000000     0.544000000
C    -1.787000000     2.051000000    -0.243000000
C    -2.720000000     3.292000000    -0.237000000
O    -2.303000000     4.444000000    -0.143000000
O    -3.877000000     3.207000000    -0.623000000
