14
-84.68042
C    -0.341000000    -2.521000000    -0.095000000
H    -0.167000000    -3.583000000     0.058000000
C     0.374000000    -1.464000000     0.513000000
H     1.183000000    -1.573000000     1.232000000
C     0.190000000    -0.134000000     0.142000000
H     0.795000000     0.702000000     0.641000000
C    -0.818000000     0.171000000    -0.674000000
H    -0.990000000     1.161000000    -1.087000000
C    -1.615000000    -0.805000000    -1.285000000
H    -2.451000000    -0.413000000    -1.858000000
C    -1.354000000    -2.157000000    -1.051000000
C    -2.154000000    -3.297000000    -1.784000000
O    -2.861000000    -2.974000000    -2.746000000
O    -2.082000000    -4.458000000    -1.461000000
