14
-81.77241
C     0.465000000    -2.373000000    -0.101000000
H     0.757000000    -3.362000000     0.242000000
C     0.613000000    -1.290000000     0.825000000
H     1.073000000    -1.402000000     1.804000000
C    -0.039000000    -0.069000000     0.485000000
H    -0.020000000     0.733000000     1.096000000
C    -0.597000000     0.101000000    -0.739000000
H    -1.017000000     1.059000000    -1.035000000
C    -0.677000000    -0.936000000    -1.685000000
H    -1.211000000    -0.785000000    -2.620000000
C    -0.180000000    -2.183000000    -1.358000000
C    -0.239000000    -3.358000000    -2.280000000
O    -0.940000000    -3.302000000    -3.255000000
O     0.542000000    -4.331000000    -2.254000000
