14
-77.60724
C    -0.892000000    -2.054000000     0.436000000
H    -1.150000000    -3.091000000     0.633000000
C    -0.109000000    -1.325000000     1.343000000
H     0.185000000    -1.846000000     2.251000000
C     0.261000000     0.022000000     1.080000000
H     0.787000000     0.692000000     1.684000000
C     0.030000000     0.532000000    -0.198000000
H     0.375000000     1.536000000    -0.428000000
C    -0.721000000    -0.237000000    -1.132000000
H    -1.074000000     0.177000000    -2.074000000
C    -1.295000000    -1.454000000    -0.787000000
C    -2.099000000    -2.224000000    -1.845000000
O    -1.947000000    -2.030000000    -3.039000000
O    -2.552000000    -3.320000000    -1.592000000
