14
-90.99392
C    -0.957000000    -1.808000000     0.127000000
H    -1.068000000    -2.577000000     0.887000000
C    -0.229000000    -0.679000000     0.399000000
H     0.210000000    -0.603000000     1.391000000
C    -0.083000000     0.305000000    -0.573000000
H     0.432000000     1.229000000    -0.342000000
C    -0.684000000     0.180000000    -1.829000000
H    -0.545000000     0.966000000    -2.566000000
C    -1.429000000    -0.977000000    -2.096000000
H    -1.920000000    -1.027000000    -3.064000000
C    -1.604000000    -1.982000000    -1.096000000
C    -2.292000000    -3.309000000    -1.532000000
O    -3.046000000    -3.259000000    -2.498000000
O    -1.997000000    -4.404000000    -1.077000000
