14
-86.30338
C    -0.504000000    -2.326000000     0.335000000
H    -0.559000000    -3.364000000     0.650000000
C     0.136000000    -1.417000000     1.183000000
H     0.458000000    -1.806000000     2.146000000
C     0.172000000    -0.041000000     0.846000000
H     0.592000000     0.675000000     1.469000000
C    -0.444000000     0.405000000    -0.330000000
H    -0.437000000     1.471000000    -0.545000000
C    -0.966000000    -0.534000000    -1.175000000
H    -1.308000000    -0.117000000    -2.118000000
C    -1.064000000    -1.917000000    -0.823000000
C    -1.650000000    -2.842000000    -1.813000000
O    -1.779000000    -2.547000000    -2.989000000
O    -1.962000000    -4.025000000    -1.503000000
