14
-86.41849
C     0.805000000    -2.876000000     0.725000000
H     1.335000000    -3.384000000     1.527000000
C     0.364000000    -1.594000000     0.833000000
H     0.460000000    -1.055000000     1.772000000
C    -0.183000000    -0.934000000    -0.211000000
H    -0.403000000     0.069000000    -0.112000000
C    -0.303000000    -1.617000000    -1.482000000
H    -0.610000000    -1.000000000    -2.322000000
C     0.169000000    -2.920000000    -1.591000000
H     0.111000000    -3.324000000    -2.599000000
C     0.720000000    -3.633000000    -0.481000000
C     1.205000000    -5.048000000    -0.604000000
O     1.142000000    -5.618000000    -1.722000000
O     1.608000000    -5.613000000     0.365000000
