14
-91.64147
C    -0.018000000    -2.162000000     0.465000000
H    -0.006000000    -2.835000000     1.319000000
C    -0.090000000    -0.814000000     0.659000000
H    -0.068000000    -0.473000000     1.691000000
C    -0.106000000     0.052000000    -0.402000000
H    -0.037000000     1.182000000    -0.258000000
C     0.061000000    -0.441000000    -1.687000000
H     0.216000000     0.182000000    -2.564000000
C     0.152000000    -1.826000000    -1.901000000
H     0.301000000    -2.220000000    -2.903000000
C     0.035000000    -2.696000000    -0.819000000
C    -0.023000000    -4.227000000    -1.014000000
O     0.584000000    -4.714000000    -1.990000000
O    -0.440000000    -4.944000000    -0.108000000
