14
-82.24859
C    -2.476000000     0.358000000    -0.130000000
H    -3.473000000     0.217000000    -0.538000000
C    -1.620000000    -0.733000000    -0.425000000
H    -1.883000000    -1.662000000    -0.924000000
C    -0.328000000    -0.560000000    -0.048000000
H     0.417000000    -1.345000000    -0.282000000
C     0.065000000     0.590000000     0.679000000
H     1.081000000     0.699000000     1.049000000
C    -0.792000000     1.666000000     0.882000000
H    -0.413000000     2.546000000     1.394000000
C    -2.093000000     1.562000000     0.546000000
C    -3.122000000     2.741000000     0.726000000
O    -2.988000000     3.767000000     1.405000000
O    -4.136000000     2.702000000     0.024000000
