14
-88.81805
C     0.724000000    -2.652000000     0.624000000
H     1.234000000    -3.197000000     1.414000000
C     0.417000000    -1.276000000     0.713000000
H     0.639000000    -0.736000000     1.630000000
C    -0.353000000    -0.670000000    -0.338000000
H    -0.691000000     0.401000000    -0.325000000
C    -0.713000000    -1.386000000    -1.497000000
H    -1.330000000    -0.948000000    -2.277000000
C    -0.276000000    -2.713000000    -1.595000000
H    -0.517000000    -3.213000000    -2.530000000
C     0.387000000    -3.368000000    -0.557000000
C     0.791000000    -4.779000000    -0.661000000
O     0.652000000    -5.277000000    -1.764000000
O     1.133000000    -5.467000000     0.285000000
