14
-84.80754
C     0.356000000    -2.262000000     1.140000000
H     0.355000000    -2.888000000     2.029000000
C     0.366000000    -0.874000000     1.241000000
H     0.407000000    -0.391000000     2.214000000
C     0.245000000    -0.109000000     0.062000000
H     0.201000000     1.021000000     0.048000000
C     0.278000000    -0.747000000    -1.178000000
H     0.142000000    -0.110000000    -2.048000000
C     0.347000000    -2.131000000    -1.253000000
H     0.413000000    -2.587000000    -2.238000000
C     0.407000000    -2.897000000    -0.129000000
C     0.403000000    -4.407000000    -0.158000000
O     0.508000000    -5.030000000    -1.179000000
O     0.036000000    -4.919000000     0.842000000
