14
-87.48072
C    -1.253000000    -0.817000000    -2.008000000
H    -1.511000000    -0.871000000    -3.063000000
C    -0.170000000    -0.109000000    -1.591000000
H     0.354000000     0.431000000    -2.375000000
C     0.237000000    -0.069000000    -0.264000000
H     1.070000000     0.597000000     0.008000000
C    -0.580000000    -0.689000000     0.671000000
H    -0.284000000    -0.488000000     1.697000000
C    -1.675000000    -1.473000000     0.299000000
H    -2.304000000    -1.911000000     1.069000000
C    -1.992000000    -1.581000000    -1.048000000
C    -3.135000000    -2.458000000    -1.444000000
O    -3.810000000    -3.034000000    -0.610000000
O    -3.301000000    -2.731000000    -2.611000000
