14
-85.50069
C    -1.619000000    -1.339000000    -1.473000000
H    -1.990000000    -1.668000000    -2.441000000
C    -0.533000000    -0.487000000    -1.569000000
H    -0.143000000    -0.191000000    -2.539000000
C    -0.078000000     0.076000000    -0.371000000
H     0.793000000     0.788000000    -0.440000000
C    -0.658000000    -0.289000000     0.843000000
H    -0.104000000     0.051000000     1.714000000
C    -1.720000000    -1.152000000     0.915000000
H    -2.148000000    -1.177000000     1.914000000
C    -2.222000000    -1.702000000    -0.264000000
C    -3.523000000    -2.417000000    -0.270000000
O    -4.151000000    -2.639000000     0.776000000
O    -4.006000000    -2.751000000    -1.327000000
