14
-82.64361
C    -1.174000000    -0.747000000    -1.171000000
H    -1.423000000    -0.806000000    -2.227000000
C    -0.107000000    -0.002000000    -0.763000000
H     0.414000000     0.563000000    -1.531000000
C     0.221000000     0.074000000     0.557000000
H     1.027000000     0.790000000     0.727000000
C    -0.493000000    -0.618000000     1.517000000
H    -0.318000000    -0.439000000     2.574000000
C    -1.583000000    -1.343000000     1.076000000
H    -2.234000000    -1.694000000     1.873000000
C    -1.986000000    -1.423000000    -0.253000000
C    -3.220000000    -2.158000000    -0.715000000
O    -3.736000000    -2.980000000     0.061000000
O    -3.600000000    -2.147000000    -1.839000000
