14
-89.75072
C    -0.617000000    -0.999000000    -2.236000000
H    -0.577000000    -0.809000000    -3.306000000
C     0.238000000    -0.320000000    -1.373000000
H     0.898000000     0.497000000    -1.652000000
C     0.231000000    -0.602000000     0.011000000
H     0.939000000    -0.130000000     0.625000000
C    -0.729000000    -1.476000000     0.460000000
H    -0.754000000    -1.559000000     1.544000000
C    -1.727000000    -1.995000000    -0.368000000
H    -2.602000000    -2.488000000     0.048000000
C    -1.630000000    -1.838000000    -1.770000000
C    -2.412000000    -2.688000000    -2.808000000
O    -3.101000000    -3.622000000    -2.364000000
O    -2.167000000    -2.599000000    -4.023000000
