14
-91.92167
C    -1.060000000    -1.092000000    -1.906000000
H    -1.026000000    -0.950000000    -2.983000000
C    -0.281000000    -0.226000000    -1.134000000
H     0.343000000     0.489000000    -1.665000000
C    -0.170000000    -0.333000000     0.269000000
H     0.440000000     0.366000000     0.807000000
C    -0.894000000    -1.305000000     0.907000000
H    -0.816000000    -1.389000000     1.988000000
C    -1.711000000    -2.119000000     0.151000000
H    -2.358000000    -2.858000000     0.616000000
C    -1.833000000    -1.997000000    -1.272000000
C    -2.723000000    -2.988000000    -2.055000000
O    -3.397000000    -3.747000000    -1.401000000
O    -2.696000000    -3.017000000    -3.284000000
