14
-83.44529
C    -0.618000000    -1.220000000    -2.545000000
H    -0.866000000    -1.320000000    -3.599000000
C     0.155000000    -0.096000000    -2.127000000
H     0.618000000     0.540000000    -2.878000000
C     0.222000000     0.200000000    -0.764000000
H     0.529000000     1.227000000    -0.464000000
C    -0.279000000    -0.601000000     0.161000000
H    -0.270000000    -0.244000000     1.188000000
C    -0.999000000    -1.755000000    -0.237000000
H    -1.601000000    -2.319000000     0.472000000
C    -1.195000000    -2.090000000    -1.585000000
C    -2.036000000    -3.276000000    -2.026000000
O    -2.916000000    -3.823000000    -1.387000000
O    -1.666000000    -3.799000000    -3.082000000
