14
-89.32206
C    -2.109000000    -0.088000000    -0.005000000
H    -2.925000000    -0.804000000    -0.045000000
C    -0.818000000    -0.577000000    -0.198000000
H    -0.661000000    -1.627000000    -0.429000000
C     0.283000000     0.271000000    -0.075000000
H     1.288000000    -0.184000000    -0.088000000
C     0.101000000     1.609000000     0.264000000
H     1.010000000     2.195000000     0.378000000
C    -1.182000000     2.090000000     0.434000000
H    -1.192000000     3.170000000     0.564000000
C    -2.347000000     1.287000000     0.285000000
C    -3.712000000     1.911000000     0.523000000
O    -3.786000000     3.041000000     0.967000000
O    -4.716000000     1.335000000     0.150000000
