14
-88.30628
C    -0.654000000    -0.824000000    -2.171000000
H    -0.569000000    -0.743000000    -3.252000000
C     0.153000000    -0.002000000    -1.417000000
H     0.982000000     0.451000000    -1.954000000
C     0.141000000     0.012000000    -0.041000000
H     0.840000000     0.622000000     0.515000000
C    -0.784000000    -0.800000000     0.655000000
H    -0.820000000    -0.730000000     1.739000000
C    -1.613000000    -1.591000000    -0.132000000
H    -2.312000000    -2.310000000     0.287000000
C    -1.565000000    -1.644000000    -1.561000000
C    -2.389000000    -2.557000000    -2.385000000
O    -3.287000000    -3.175000000    -1.837000000
O    -2.027000000    -2.877000000    -3.529000000
