14
-89.26451
C     0.365000000    -0.996000000    -1.956000000
H     0.455000000    -0.782000000    -3.018000000
C     0.198000000     0.132000000    -1.064000000
H     0.164000000     1.156000000    -1.428000000
C    -0.031000000     0.027000000     0.295000000
H    -0.310000000     0.860000000     0.911000000
C     0.058000000    -1.289000000     0.821000000
H     0.016000000    -1.348000000     1.906000000
C     0.285000000    -2.388000000     0.054000000
H     0.427000000    -3.378000000     0.481000000
C     0.345000000    -2.291000000    -1.382000000
C     0.566000000    -3.496000000    -2.235000000
O     0.156000000    -4.598000000    -1.855000000
O     1.310000000    -3.406000000    -3.208000000
