14
-86.07211
C     0.835000000    -0.352000000    -1.920000000
H     1.004000000     0.257000000    -2.804000000
C     0.622000000     0.261000000    -0.724000000
H     0.654000000     1.347000000    -0.684000000
C     0.250000000    -0.478000000     0.394000000
H     0.181000000     0.035000000     1.280000000
C     0.139000000    -1.877000000     0.327000000
H    -0.168000000    -2.391000000     1.234000000
C     0.313000000    -2.541000000    -0.884000000
H     0.173000000    -3.616000000    -0.970000000
C     0.724000000    -1.785000000    -2.014000000
C     0.919000000    -2.342000000    -3.426000000
O     1.111000000    -3.516000000    -3.656000000
O     1.027000000    -1.583000000    -4.395000000
