14
-86.07324
C     0.557000000     0.080000000    -1.703000000
H     0.800000000     0.641000000    -2.602000000
C     0.351000000     0.710000000    -0.463000000
H     0.354000000     1.786000000    -0.315000000
C     0.030000000    -0.002000000     0.686000000
H    -0.089000000     0.454000000     1.702000000
C    -0.238000000    -1.347000000     0.469000000
H    -0.427000000    -1.938000000     1.362000000
C    -0.026000000    -2.000000000    -0.707000000
H    -0.226000000    -3.068000000    -0.722000000
C     0.411000000    -1.346000000    -1.887000000
C     0.661000000    -2.100000000    -3.190000000
O     0.410000000    -3.340000000    -3.200000000
O     0.868000000    -1.534000000    -4.246000000
