14
-81.91101
C     1.781000000     0.144000000    -2.135000000
H     2.379000000     0.815000000    -2.746000000
C     0.909000000     0.597000000    -1.134000000
H     0.861000000     1.669000000    -0.961000000
C     0.265000000    -0.256000000    -0.319000000
H    -0.262000000     0.134000000     0.462000000
C     0.305000000    -1.569000000    -0.488000000
H    -0.196000000    -2.305000000     0.136000000
C     1.102000000    -2.090000000    -1.509000000
H     1.136000000    -3.163000000    -1.677000000
C     1.804000000    -1.224000000    -2.382000000
C     2.569000000    -1.774000000    -3.537000000
O     2.542000000    -2.978000000    -3.726000000
O     3.261000000    -1.086000000    -4.237000000
