14
-85.62357
C    -2.719000000     0.635000000     0.015000000
H    -3.714000000     0.200000000    -0.029000000
C    -1.624000000    -0.207000000    -0.127000000
H    -1.725000000    -1.289000000    -0.147000000
C    -0.352000000     0.362000000    -0.002000000
H     0.465000000    -0.395000000     0.008000000
C    -0.215000000     1.704000000     0.354000000
H     0.737000000     2.216000000     0.475000000
C    -1.280000000     2.507000000     0.623000000
H    -1.189000000     3.579000000     0.775000000
C    -2.570000000     2.007000000     0.355000000
C    -3.744000000     2.884000000     0.211000000
O    -3.677000000     3.944000000     0.825000000
O    -4.610000000     2.602000000    -0.601000000
