14
-84.00303
C     0.805000000     0.389000000    -1.780000000
H     1.191000000     1.141000000    -2.464000000
C     0.256000000     0.786000000    -0.540000000
H     0.311000000     1.773000000    -0.089000000
C    -0.165000000    -0.195000000     0.298000000
H    -0.544000000     0.172000000     1.321000000
C    -0.272000000    -1.537000000    -0.157000000
H    -0.699000000    -2.266000000     0.527000000
C     0.317000000    -1.949000000    -1.293000000
H     0.344000000    -3.012000000    -1.519000000
C     0.930000000    -0.992000000    -2.128000000
C     1.478000000    -1.436000000    -3.467000000
O     1.370000000    -2.683000000    -3.756000000
O     2.075000000    -0.732000000    -4.267000000
