14
-87.28803
C     1.115000000     0.064000000    -2.097000000
H     1.625000000     0.359000000    -3.011000000
C     0.670000000     1.068000000    -1.307000000
H     0.764000000     2.116000000    -1.581000000
C     0.232000000     0.722000000    -0.011000000
H    -0.112000000     1.510000000     0.657000000
C     0.079000000    -0.584000000     0.407000000
H    -0.354000000    -0.763000000     1.388000000
C     0.317000000    -1.578000000    -0.505000000
H     0.015000000    -2.573000000    -0.189000000
C     0.976000000    -1.259000000    -1.698000000
C     1.556000000    -2.311000000    -2.705000000
O     1.346000000    -3.458000000    -2.383000000
O     1.993000000    -1.985000000    -3.826000000
