14
-82.33021
C     0.603000000     0.652000000    -1.390000000
H     1.021000000     1.480000000    -1.957000000
C     0.289000000     0.817000000    -0.017000000
H     0.251000000     1.831000000     0.372000000
C    -0.110000000    -0.201000000     0.875000000
H    -0.280000000     0.102000000     1.958000000
C    -0.379000000    -1.430000000     0.282000000
H    -0.788000000    -2.207000000     0.922000000
C    -0.123000000    -1.632000000    -1.079000000
H    -0.209000000    -2.613000000    -1.540000000
C     0.460000000    -0.634000000    -1.878000000
C     0.942000000    -0.855000000    -3.317000000
O     0.586000000    -1.861000000    -3.864000000
O     1.373000000     0.061000000    -4.045000000
