14
-86.50629
C    -2.930000000     0.547000000    -0.392000000
H    -3.865000000     0.296000000    -0.886000000
C    -1.737000000    -0.064000000    -0.773000000
H    -1.740000000    -0.924000000    -1.438000000
C    -0.496000000     0.318000000    -0.237000000
H     0.420000000    -0.207000000    -0.540000000
C    -0.513000000     1.453000000     0.587000000
H     0.390000000     1.842000000     1.051000000
C    -1.720000000     2.108000000     0.973000000
H    -1.627000000     3.048000000     1.510000000
C    -2.930000000     1.644000000     0.488000000
C    -4.201000000     2.409000000     0.982000000
O    -4.148000000     3.523000000     1.491000000
O    -5.298000000     2.009000000     0.680000000
