14
-84.52065
C    -2.857000000     0.839000000    -0.143000000
H    -3.847000000     0.407000000    -0.024000000
C    -1.730000000     0.100000000    -0.373000000
H    -1.889000000    -0.961000000    -0.548000000
C    -0.521000000     0.693000000    -0.593000000
H     0.369000000     0.070000000    -0.970000000
C    -0.407000000     2.058000000    -0.336000000
H     0.470000000     2.648000000    -0.588000000
C    -1.500000000     2.833000000     0.013000000
H    -1.405000000     3.905000000     0.165000000
C    -2.800000000     2.239000000     0.038000000
C    -4.052000000     3.082000000     0.259000000
O    -4.018000000     3.987000000     1.040000000
O    -5.091000000     2.784000000    -0.278000000
