14
-89.90408
C    -0.155000000     0.318000000    -2.293000000
H    -0.644000000     0.961000000    -3.020000000
C    -0.425000000     0.571000000    -0.923000000
H    -1.143000000     1.314000000    -0.586000000
C     0.232000000    -0.248000000     0.022000000
H     0.203000000    -0.086000000     1.125000000
C     1.110000000    -1.268000000    -0.424000000
H     1.668000000    -1.891000000     0.271000000
C     1.413000000    -1.432000000    -1.773000000
H     2.064000000    -2.203000000    -2.178000000
C     0.787000000    -0.607000000    -2.719000000
C     1.161000000    -0.760000000    -4.178000000
O     1.816000000    -1.776000000    -4.445000000
O     0.662000000    -0.123000000    -5.075000000
