14
-88.84327
C    -1.157000000    -0.383000000    -2.080000000
H    -2.074000000    -0.096000000    -2.588000000
C    -1.021000000     0.166000000    -0.828000000
H    -1.810000000     0.823000000    -0.472000000
C     0.165000000    -0.142000000    -0.087000000
H     0.357000000     0.323000000     0.939000000
C     1.116000000    -1.007000000    -0.605000000
H     1.980000000    -1.147000000     0.040000000
C     0.950000000    -1.487000000    -1.870000000
H     1.787000000    -2.029000000    -2.304000000
C    -0.197000000    -1.205000000    -2.617000000
C    -0.426000000    -1.846000000    -3.969000000
O     0.394000000    -2.728000000    -4.225000000
O    -1.367000000    -1.591000000    -4.685000000
