14
-87.65646
C    -0.616000000     0.133000000    -2.010000000
H    -1.150000000     0.553000000    -2.858000000
C    -1.020000000     0.578000000    -0.783000000
H    -1.861000000     1.264000000    -0.727000000
C    -0.365000000     0.152000000     0.355000000
H    -0.655000000     0.466000000     1.336000000
C     0.657000000    -0.789000000     0.225000000
H     1.094000000    -1.269000000     1.097000000
C     1.023000000    -1.275000000    -1.080000000
H     1.686000000    -2.137000000    -1.072000000
C     0.400000000    -0.816000000    -2.225000000
C     0.803000000    -1.315000000    -3.596000000
O     1.283000000    -2.450000000    -3.750000000
O     0.355000000    -0.711000000    -4.533000000
