14
-85.21797
C    -0.580000000     0.991000000    -2.072000000
H    -1.473000000     1.428000000    -2.513000000
C    -0.697000000     0.452000000    -0.796000000
H    -1.650000000     0.630000000    -0.304000000
C     0.369000000    -0.170000000    -0.186000000
H     0.374000000    -0.608000000     0.783000000
C     1.539000000    -0.327000000    -0.837000000
H     2.333000000    -0.918000000    -0.389000000
C     1.697000000     0.234000000    -2.117000000
H     2.640000000     0.179000000    -2.654000000
C     0.665000000     0.882000000    -2.771000000
C     0.856000000     1.156000000    -4.281000000
O     1.911000000     0.843000000    -4.825000000
O    -0.036000000     1.582000000    -4.944000000
