14
-80.25845
C     0.858000000     0.480000000    -2.463000000
H     0.889000000     1.463000000    -2.927000000
C     0.163000000     0.234000000    -1.245000000
H    -0.247000000     1.138000000    -0.801000000
C     0.138000000    -1.033000000    -0.681000000
H    -0.362000000    -1.211000000     0.307000000
C     0.629000000    -2.145000000    -1.355000000
H     0.521000000    -3.135000000    -0.920000000
C     1.398000000    -1.952000000    -2.542000000
H     1.841000000    -2.796000000    -3.065000000
C     1.485000000    -0.610000000    -3.095000000
C     2.064000000    -0.405000000    -4.478000000
O     2.741000000    -1.254000000    -4.918000000
O     1.656000000     0.456000000    -5.264000000
