14
-91.79506
C    -0.363000000     0.941000000    -2.611000000
H    -0.804000000     1.437000000    -3.472000000
C    -0.888000000     1.087000000    -1.331000000
H    -1.703000000     1.790000000    -1.178000000
C    -0.418000000     0.361000000    -0.195000000
H    -0.766000000     0.515000000     0.837000000
C     0.563000000    -0.576000000    -0.432000000
H     1.009000000    -1.035000000     0.447000000
C     1.088000000    -0.775000000    -1.724000000
H     1.889000000    -1.477000000    -1.942000000
C     0.686000000     0.033000000    -2.818000000
C     1.161000000    -0.303000000    -4.220000000
O     1.738000000    -1.368000000    -4.403000000
O     0.746000000     0.408000000    -5.117000000
