14
-93.92802
C     1.089000000    -1.525000000    -1.362000000
H     1.252000000    -2.598000000    -1.300000000
C     0.343000000    -0.891000000    -0.345000000
H    -0.010000000    -1.466000000     0.508000000
C     0.090000000     0.472000000    -0.423000000
H    -0.484000000     1.029000000     0.370000000
C     0.526000000     1.187000000    -1.546000000
H     0.394000000     2.256000000    -1.691000000
C     1.277000000     0.514000000    -2.582000000
H     1.604000000     1.135000000    -3.412000000
C     1.538000000    -0.850000000    -2.527000000
C     2.267000000    -1.663000000    -3.644000000
O     2.500000000    -1.103000000    -4.699000000
O     2.476000000    -2.854000000    -3.450000000
