14
-81.12078
C    -0.169000000    -2.186000000    -0.778000000
H    -0.566000000    -3.176000000    -0.573000000
C    -0.555000000    -1.117000000     0.023000000
H    -1.201000000    -1.220000000     0.891000000
C     0.110000000     0.120000000    -0.069000000
H    -0.197000000     0.937000000     0.554000000
C     1.118000000     0.283000000    -1.118000000
H     1.451000000     1.277000000    -1.407000000
C     1.504000000    -0.857000000    -1.816000000
H     2.237000000    -0.706000000    -2.605000000
C     0.852000000    -2.094000000    -1.681000000
C     1.329000000    -3.361000000    -2.379000000
O     2.229000000    -3.411000000    -3.181000000
O     0.689000000    -4.393000000    -2.261000000
