14
-87.33546
C     0.752000000    -2.285000000    -1.490000000
H     0.438000000    -3.310000000    -1.671000000
C    -0.095000000    -1.471000000    -0.747000000
H    -0.952000000    -1.877000000    -0.216000000
C     0.190000000    -0.126000000    -0.562000000
H    -0.420000000     0.509000000     0.158000000
C     1.282000000     0.454000000    -1.208000000
H     1.511000000     1.487000000    -0.958000000
C     2.059000000    -0.301000000    -2.064000000
H     2.919000000     0.120000000    -2.578000000
C     1.890000000    -1.722000000    -2.156000000
C     2.555000000    -2.630000000    -3.136000000
O     3.449000000    -2.259000000    -3.905000000
O     2.167000000    -3.779000000    -3.216000000
