14
-85.26628
C     3.458000000    -1.700000000    -0.306000000
H     4.264000000    -2.389000000    -0.067000000
C     2.333000000    -1.496000000     0.526000000
H     2.112000000    -2.102000000     1.401000000
C     1.348000000    -0.625000000     0.178000000
H     0.423000000    -0.510000000     0.894000000
C     1.487000000     0.115000000    -0.986000000
H     0.745000000     0.846000000    -1.297000000
C     2.670000000    -0.002000000    -1.771000000
H     2.760000000     0.565000000    -2.694000000
C     3.624000000    -1.001000000    -1.502000000
C     4.685000000    -1.347000000    -2.482000000
O     4.642000000    -0.731000000    -3.532000000
O     5.342000000    -2.380000000    -2.399000000
