14
-83.62362
C    -0.583000000    -1.675000000    -0.674000000
H    -0.109000000    -2.582000000    -1.042000000
C     0.325000000    -0.669000000    -0.290000000
H     1.381000000    -0.782000000    -0.524000000
C    -0.075000000     0.508000000     0.351000000
H     0.709000000     1.171000000     0.774000000
C    -1.438000000     0.576000000     0.634000000
H    -1.851000000     1.384000000     1.232000000
C    -2.352000000    -0.398000000     0.245000000
H    -3.391000000    -0.252000000     0.532000000
C    -1.941000000    -1.557000000    -0.453000000
C    -2.947000000    -2.579000000    -0.946000000
O    -4.084000000    -2.391000000    -0.669000000
O    -2.693000000    -3.421000000    -1.803000000
