14
-90.51490
C     1.895000000    -1.823000000    -0.674000000
H     2.850000000    -2.267000000    -0.407000000
C     1.350000000    -0.853000000     0.150000000
H     1.926000000    -0.564000000     1.025000000
C     0.084000000    -0.289000000    -0.105000000
H    -0.221000000     0.525000000     0.544000000
C    -0.637000000    -0.660000000    -1.269000000
H    -1.609000000    -0.206000000    -1.448000000
C    -0.108000000    -1.718000000    -2.045000000
H    -0.702000000    -2.042000000    -2.896000000
C     1.168000000    -2.270000000    -1.790000000
C     1.770000000    -3.283000000    -2.746000000
O     1.144000000    -3.724000000    -3.692000000
O     2.848000000    -3.826000000    -2.481000000
