14
-80.60319
C     1.428000000    -1.998000000    -0.678000000
H     2.462000000    -2.336000000    -0.678000000
C     1.027000000    -0.876000000     0.042000000
H     1.747000000    -0.281000000     0.597000000
C    -0.290000000    -0.400000000     0.016000000
H    -0.547000000     0.555000000     0.441000000
C    -1.267000000    -1.237000000    -0.572000000
H    -2.341000000    -1.074000000    -0.526000000
C    -0.859000000    -2.470000000    -1.149000000
H    -1.604000000    -3.150000000    -1.555000000
C     0.455000000    -2.854000000    -1.319000000
C     0.820000000    -4.173000000    -1.989000000
O     0.059000000    -4.869000000    -2.592000000
O     1.971000000    -4.543000000    -2.044000000
