14
-87.48313
C     1.759000000    -1.442000000    -0.975000000
H     2.821000000    -1.670000000    -1.025000000
C     1.288000000    -0.345000000    -0.236000000
H     1.961000000     0.328000000     0.290000000
C    -0.107000000    -0.178000000    -0.171000000
H    -0.554000000     0.468000000     0.634000000
C    -0.984000000    -0.921000000    -0.939000000
H    -2.061000000    -0.838000000    -0.821000000
C    -0.480000000    -1.857000000    -1.807000000
H    -1.233000000    -2.419000000    -2.353000000
C     0.858000000    -2.154000000    -1.855000000
C     1.408000000    -3.211000000    -2.760000000
O     0.624000000    -3.816000000    -3.466000000
O     2.572000000    -3.542000000    -2.708000000
