14
-79.46441
C     1.406000000    -0.943000000     0.043000000
H     2.361000000    -1.129000000     0.528000000
C     0.747000000     0.348000000     0.157000000
H     1.179000000     1.192000000     0.688000000
C    -0.465000000     0.621000000    -0.408000000
H    -0.791000000     1.568000000    -0.243000000
C    -1.091000000    -0.416000000    -1.106000000
H    -2.062000000    -0.311000000    -1.583000000
C    -0.504000000    -1.671000000    -1.137000000
H    -1.001000000    -2.592000000    -1.429000000
C     0.790000000    -1.950000000    -0.617000000
C     1.494000000    -3.287000000    -0.765000000
O     0.940000000    -4.256000000    -1.179000000
O     2.644000000    -3.254000000    -0.494000000
