14
-90.42273
C     1.820000000    -1.802000000    -0.159000000
H     2.748000000    -2.287000000     0.133000000
C     1.318000000    -0.717000000     0.536000000
H     1.737000000    -0.257000000     1.427000000
C     0.071000000    -0.242000000     0.187000000
H    -0.449000000     0.564000000     0.680000000
C    -0.676000000    -0.883000000    -0.797000000
H    -1.666000000    -0.509000000    -1.044000000
C    -0.164000000    -1.969000000    -1.474000000
H    -0.761000000    -2.434000000    -2.255000000
C     1.111000000    -2.431000000    -1.214000000
C     1.640000000    -3.762000000    -1.813000000
O     1.043000000    -4.283000000    -2.750000000
O     2.675000000    -4.279000000    -1.413000000
