14
-85.17140
C     1.733000000    -1.543000000    -0.506000000
H     2.787000000    -1.657000000    -0.268000000
C     1.068000000    -0.510000000     0.076000000
H     1.518000000     0.157000000     0.806000000
C    -0.287000000    -0.269000000    -0.202000000
H    -0.788000000     0.507000000     0.331000000
C    -0.925000000    -1.056000000    -1.167000000
H    -1.953000000    -0.847000000    -1.452000000
C    -0.269000000    -2.144000000    -1.764000000
H    -0.732000000    -2.782000000    -2.512000000
C     1.075000000    -2.448000000    -1.413000000
C     1.761000000    -3.590000000    -1.968000000
O     1.085000000    -4.472000000    -2.507000000
O     2.908000000    -3.782000000    -1.740000000
