14
-81.50253
C     1.734000000    -0.988000000    -0.086000000
H     2.700000000    -1.022000000     0.412000000
C     0.842000000     0.040000000     0.286000000
H     1.238000000     0.741000000     1.017000000
C    -0.394000000     0.199000000    -0.304000000
H    -0.978000000     1.045000000    -0.007000000
C    -0.790000000    -0.744000000    -1.267000000
H    -1.814000000    -0.695000000    -1.630000000
C     0.077000000    -1.840000000    -1.631000000
H    -0.247000000    -2.646000000    -2.284000000
C     1.327000000    -1.997000000    -1.060000000
C     2.153000000    -3.179000000    -1.290000000
O     1.947000000    -3.994000000    -2.172000000
O     3.097000000    -3.392000000    -0.585000000
