14
-82.03199
C    -2.425000000     0.468000000    -0.791000000
H    -3.306000000    -0.112000000    -1.054000000
C    -1.306000000    -0.254000000    -0.502000000
H    -1.286000000    -1.340000000    -0.479000000
C    -0.199000000     0.339000000    -0.001000000
H     0.715000000    -0.250000000     0.251000000
C    -0.119000000     1.738000000     0.154000000
H     0.823000000     2.066000000     0.587000000
C    -1.292000000     2.462000000    -0.070000000
H    -1.283000000     3.517000000     0.192000000
C    -2.472000000     1.860000000    -0.523000000
C    -3.681000000     2.701000000    -0.822000000
O    -3.657000000     3.922000000    -0.898000000
O    -4.712000000     2.168000000    -1.150000000
