14
-79.99655
C     1.885000000    -1.521000000    -0.409000000
H     2.873000000    -1.828000000    -0.076000000
C     1.007000000    -0.926000000     0.477000000
H     1.185000000    -1.017000000     1.545000000
C    -0.156000000    -0.374000000    -0.056000000
H    -0.874000000    -0.104000000     0.727000000
C    -0.499000000    -0.452000000    -1.388000000
H    -1.496000000    -0.143000000    -1.693000000
C     0.396000000    -1.006000000    -2.254000000
H     0.024000000    -1.136000000    -3.267000000
C     1.629000000    -1.528000000    -1.843000000
C     2.447000000    -2.413000000    -2.770000000
O     1.910000000    -2.905000000    -3.764000000
O     3.475000000    -2.843000000    -2.383000000
