14
-90.00629
C     1.973000000    -1.425000000    -0.992000000
H     2.896000000    -1.983000000    -1.124000000
C     1.799000000    -0.762000000     0.253000000
H     2.586000000    -0.589000000     0.983000000
C     0.610000000    -0.143000000     0.562000000
H     0.615000000     0.415000000     1.510000000
C    -0.452000000    -0.064000000    -0.408000000
H    -1.342000000     0.500000000    -0.144000000
C    -0.301000000    -0.775000000    -1.570000000
H    -1.171000000    -0.816000000    -2.221000000
C     0.909000000    -1.444000000    -1.902000000
C     1.073000000    -2.161000000    -3.202000000
O     0.172000000    -2.217000000    -4.041000000
O     2.175000000    -2.713000000    -3.478000000
