14
-86.96653
C     2.167000000    -1.455000000    -1.568000000
H     3.247000000    -1.387000000    -1.466000000
C     1.350000000    -0.965000000    -0.525000000
H     1.660000000    -0.612000000     0.455000000
C    -0.046000000    -0.939000000    -0.688000000
H    -0.640000000    -0.544000000     0.140000000
C    -0.557000000    -1.291000000    -1.913000000
H    -1.625000000    -1.172000000    -2.076000000
C     0.237000000    -1.929000000    -2.914000000
H    -0.175000000    -2.264000000    -3.862000000
C     1.621000000    -1.981000000    -2.745000000
C     2.556000000    -2.419000000    -3.852000000
O     2.106000000    -3.225000000    -4.686000000
O     3.746000000    -2.321000000    -3.679000000
