14
-83.79397
C     1.990000000    -2.054000000    -0.376000000
H     2.827000000    -2.747000000    -0.378000000
C     1.847000000    -1.147000000     0.680000000
H     2.525000000    -1.061000000     1.526000000
C     0.778000000    -0.235000000     0.549000000
H     0.605000000     0.574000000     1.285000000
C     0.029000000    -0.120000000    -0.601000000
H    -0.773000000     0.612000000    -0.638000000
C     0.222000000    -1.007000000    -1.689000000
H    -0.433000000    -0.850000000    -2.543000000
C     1.215000000    -2.003000000    -1.584000000
C     1.541000000    -2.801000000    -2.788000000
O     0.733000000    -3.095000000    -3.632000000
O     2.623000000    -3.413000000    -2.839000000
