14
-87.22425
C    -2.265000000     0.814000000    -0.818000000
H    -3.245000000     0.548000000    -1.205000000
C    -1.161000000     0.036000000    -1.013000000
H    -1.262000000    -0.862000000    -1.617000000
C     0.084000000     0.384000000    -0.501000000
H     0.884000000    -0.333000000    -0.626000000
C     0.157000000     1.556000000     0.305000000
H     1.089000000     1.784000000     0.816000000
C    -0.977000000     2.384000000     0.484000000
H    -0.801000000     3.321000000     1.005000000
C    -2.171000000     2.069000000    -0.180000000
C    -3.316000000     3.057000000    -0.285000000
O    -3.153000000     4.212000000    -0.047000000
O    -4.328000000     2.689000000    -0.890000000
