14
-79.82774
C     1.884000000    -0.864000000     0.301000000
H     2.848000000    -1.001000000     0.784000000
C     1.062000000     0.158000000     0.830000000
H     1.494000000     0.672000000     1.685000000
C    -0.170000000     0.450000000     0.399000000
H    -0.948000000     1.097000000     0.972000000
C    -0.573000000    -0.208000000    -0.789000000
H    -1.575000000    -0.019000000    -1.165000000
C     0.211000000    -1.160000000    -1.391000000
H    -0.262000000    -1.700000000    -2.208000000
C     1.448000000    -1.578000000    -0.830000000
C     2.295000000    -2.583000000    -1.568000000
O     1.955000000    -3.143000000    -2.640000000
O     3.337000000    -2.817000000    -1.095000000
