14
-90.49556
C     1.367000000    -1.939000000    -0.215000000
H     2.209000000    -2.543000000     0.114000000
C     1.178000000    -0.725000000     0.431000000
H     1.756000000    -0.381000000     1.285000000
C     0.231000000     0.125000000    -0.003000000
H     0.092000000     1.084000000     0.369000000
C    -0.626000000    -0.219000000    -1.104000000
H    -1.471000000     0.412000000    -1.364000000
C    -0.402000000    -1.419000000    -1.767000000
H    -1.037000000    -1.596000000    -2.631000000
C     0.599000000    -2.314000000    -1.374000000
C     0.807000000    -3.613000000    -2.119000000
O     0.260000000    -3.757000000    -3.198000000
O     1.422000000    -4.488000000    -1.507000000
