14
-80.19626
C     1.932000000    -1.501000000     0.219000000
H     2.756000000    -2.032000000     0.689000000
C     1.332000000    -0.632000000     1.054000000
H     1.751000000    -0.397000000     2.029000000
C     0.203000000     0.071000000     0.538000000
H    -0.165000000     0.919000000     1.086000000
C    -0.330000000    -0.145000000    -0.745000000
H    -1.208000000     0.359000000    -1.141000000
C     0.278000000    -1.163000000    -1.464000000
H    -0.140000000    -1.417000000    -2.434000000
C     1.371000000    -1.892000000    -1.020000000
C     1.899000000    -3.045000000    -1.684000000
O     1.496000000    -3.413000000    -2.768000000
O     2.864000000    -3.715000000    -1.227000000
