14
-78.56397
C     1.919000000    -1.763000000    -0.226000000
H     2.796000000    -1.975000000     0.380000000
C     1.162000000    -0.765000000     0.373000000
H     1.530000000    -0.238000000     1.250000000
C    -0.050000000    -0.411000000    -0.210000000
H    -0.566000000     0.426000000     0.148000000
C    -0.579000000    -1.085000000    -1.291000000
H    -1.531000000    -0.871000000    -1.771000000
C     0.232000000    -2.113000000    -1.776000000
H    -0.200000000    -2.755000000    -2.539000000
C     1.420000000    -2.556000000    -1.232000000
C     2.119000000    -3.760000000    -1.673000000
O     1.780000000    -4.495000000    -2.590000000
O     3.138000000    -4.057000000    -1.108000000
