14
-85.80077
C     0.970000000    -2.106000000     0.066000000
H     1.775000000    -2.666000000     0.536000000
C     0.644000000    -0.787000000     0.389000000
H     1.095000000    -0.250000000     1.219000000
C    -0.320000000    -0.090000000    -0.444000000
H    -0.571000000     0.877000000    -0.198000000
C    -0.929000000    -0.712000000    -1.501000000
H    -1.674000000    -0.160000000    -2.069000000
C    -0.649000000    -2.042000000    -1.775000000
H    -1.158000000    -2.462000000    -2.639000000
C     0.365000000    -2.692000000    -1.086000000
C     0.863000000    -4.126000000    -1.557000000
O     0.459000000    -4.619000000    -2.600000000
O     1.663000000    -4.686000000    -0.899000000
