14
-84.37056
C     0.960000000    -1.833000000     0.122000000
H     1.682000000    -2.299000000     0.788000000
C     0.502000000    -0.529000000     0.253000000
H     0.869000000     0.132000000     1.034000000
C    -0.353000000     0.041000000    -0.647000000
H    -0.560000000     1.078000000    -0.591000000
C    -0.859000000    -0.730000000    -1.606000000
H    -1.446000000    -0.293000000    -2.410000000
C    -0.485000000    -2.061000000    -1.769000000
H    -0.930000000    -2.651000000    -2.566000000
C     0.424000000    -2.649000000    -0.870000000
C     0.819000000    -4.105000000    -1.080000000
O     0.365000000    -4.698000000    -2.046000000
O     1.499000000    -4.642000000    -0.287000000
