14
-76.87465
C    -0.089000000    -1.930000000     0.204000000
H     0.509000000    -2.381000000     0.991000000
C    -0.430000000    -0.604000000     0.325000000
H    -0.264000000    -0.065000000     1.254000000
C    -0.907000000     0.129000000    -0.780000000
H    -1.087000000     1.157000000    -0.606000000
C    -1.261000000    -0.545000000    -1.928000000
H    -1.745000000     0.069000000    -2.684000000
C    -0.911000000    -1.876000000    -2.069000000
H    -1.149000000    -2.343000000    -3.020000000
C    -0.475000000    -2.602000000    -0.969000000
C    -0.189000000    -4.082000000    -1.189000000
O    -0.566000000    -4.720000000    -2.139000000
O     0.629000000    -4.609000000    -0.514000000
