14
-81.71035
C     1.579000000    -0.699000000     0.120000000
H     2.609000000    -0.656000000     0.464000000
C     0.637000000     0.315000000     0.526000000
H     0.992000000     1.106000000     1.181000000
C    -0.741000000     0.152000000     0.182000000
H    -1.527000000     0.846000000     0.566000000
C    -1.041000000    -0.814000000    -0.774000000
H    -2.032000000    -0.799000000    -1.220000000
C    -0.144000000    -1.758000000    -1.154000000
H    -0.460000000    -2.538000000    -1.842000000
C     1.146000000    -1.740000000    -0.665000000
C     2.078000000    -2.876000000    -1.057000000
O     1.646000000    -3.717000000    -1.768000000
O     3.196000000    -3.040000000    -0.614000000
