14
-86.65108
C     1.417000000    -0.388000000     0.174000000
H     2.459000000    -0.421000000     0.481000000
C     0.400000000     0.503000000     0.523000000
H     0.505000000     1.322000000     1.230000000
C    -0.887000000     0.419000000     0.009000000
H    -1.634000000     1.075000000     0.249000000
C    -1.124000000    -0.455000000    -1.053000000
H    -2.078000000    -0.518000000    -1.570000000
C    -0.174000000    -1.323000000    -1.467000000
H    -0.322000000    -2.120000000    -2.192000000
C     1.121000000    -1.280000000    -0.854000000
C     2.233000000    -2.174000000    -1.408000000
O     2.029000000    -2.687000000    -2.492000000
O     3.275000000    -2.316000000    -0.826000000
