14
-87.80938
C     0.995000000    -2.295000000     0.393000000
H     1.702000000    -3.037000000     0.755000000
C     1.098000000    -1.004000000     0.990000000
H     1.789000000    -0.722000000     1.781000000
C     0.339000000     0.032000000     0.414000000
H     0.422000000     1.011000000     0.758000000
C    -0.674000000    -0.280000000    -0.542000000
H    -1.348000000     0.536000000    -0.790000000
C    -0.819000000    -1.606000000    -1.083000000
H    -1.567000000    -1.796000000    -1.848000000
C     0.048000000    -2.638000000    -0.608000000
C     0.079000000    -3.940000000    -1.312000000
O    -0.772000000    -4.224000000    -2.151000000
O     0.999000000    -4.767000000    -1.107000000
