14
-85.76336
C     1.236000000    -2.139000000     1.096000000
H     1.971000000    -2.800000000     1.547000000
C     1.423000000    -0.748000000     1.301000000
H     2.317000000    -0.382000000     1.800000000
C     0.606000000     0.161000000     0.657000000
H     0.735000000     1.247000000     0.851000000
C    -0.418000000    -0.256000000    -0.194000000
H    -1.113000000     0.400000000    -0.711000000
C    -0.611000000    -1.638000000    -0.363000000
H    -1.294000000    -2.014000000    -1.121000000
C     0.189000000    -2.610000000     0.266000000
C     0.127000000    -4.080000000     0.008000000
O    -0.860000000    -4.472000000    -0.515000000
O     1.053000000    -4.776000000     0.293000000
