14
-80.76266
C     1.853000000    -1.179000000     0.947000000
H     2.881000000    -1.463000000     1.158000000
C     1.571000000     0.186000000     0.740000000
H     2.315000000     0.905000000     1.075000000
C     0.374000000     0.574000000     0.288000000
H     0.153000000     1.626000000     0.177000000
C    -0.579000000    -0.338000000     0.026000000
H    -1.564000000     0.039000000    -0.236000000
C    -0.269000000    -1.665000000     0.085000000
H    -1.001000000    -2.389000000    -0.264000000
C     0.926000000    -2.100000000     0.611000000
C     1.280000000    -3.554000000     0.451000000
O     0.538000000    -4.376000000    -0.003000000
O     2.377000000    -3.916000000     0.927000000
