14
-88.81205
C    -1.348000000    -0.954000000     1.797000000
H    -1.871000000    -1.552000000     2.539000000
C    -0.059000000    -1.328000000     1.288000000
H     0.596000000    -2.115000000     1.653000000
C     0.575000000    -0.417000000     0.414000000
H     1.626000000    -0.663000000     0.124000000
C    -0.115000000     0.607000000    -0.199000000
H     0.472000000     1.201000000    -0.895000000
C    -1.410000000     0.937000000     0.205000000
H    -2.002000000     1.680000000    -0.324000000
C    -2.023000000     0.112000000     1.195000000
C    -3.494000000     0.348000000     1.472000000
O    -4.156000000     1.058000000     0.748000000
O    -4.030000000    -0.198000000     2.473000000
