14
-89.35379
C     1.782000000    -1.946000000    -0.879000000
H     2.501000000    -2.485000000    -1.490000000
C     1.052000000    -0.872000000    -1.462000000
H     1.068000000    -0.706000000    -2.536000000
C     0.137000000    -0.144000000    -0.647000000
H    -0.349000000     0.726000000    -1.033000000
C     0.021000000    -0.417000000     0.679000000
H    -0.670000000     0.152000000     1.295000000
C     0.572000000    -1.621000000     1.154000000
H     0.262000000    -1.808000000     2.179000000
C     1.530000000    -2.291000000     0.459000000
C     2.106000000    -3.638000000     0.973000000
O     1.586000000    -4.071000000     1.994000000
O     3.096000000    -4.123000000     0.431000000
