14
-82.28114
C     0.840000000    -0.669000000    -1.175000000
H     1.345000000    -0.602000000    -2.136000000
C     0.002000000     0.407000000    -0.768000000
H    -0.184000000     1.164000000    -1.526000000
C    -0.610000000     0.416000000     0.498000000
H    -1.212000000     1.260000000     0.830000000
C    -0.256000000    -0.643000000     1.383000000
H    -0.670000000    -0.728000000     2.385000000
C     0.630000000    -1.624000000     0.965000000
H     0.971000000    -2.448000000     1.586000000
C     1.120000000    -1.662000000    -0.304000000
C     1.971000000    -2.884000000    -0.666000000
O     1.831000000    -3.899000000     0.008000000
O     2.480000000    -2.896000000    -1.712000000
