14
-91.90090
C     1.142000000    -1.991000000    -0.278000000
H     1.757000000    -2.486000000    -1.025000000
C     0.523000000    -0.760000000    -0.621000000
H     0.570000000    -0.343000000    -1.624000000
C    -0.209000000    -0.108000000     0.358000000
H    -0.685000000     0.872000000     0.112000000
C    -0.396000000    -0.664000000     1.653000000
H    -0.904000000    -0.043000000     2.387000000
C     0.234000000    -1.841000000     1.952000000
H     0.271000000    -2.176000000     2.986000000
C     1.055000000    -2.522000000     1.027000000
C     2.003000000    -3.629000000     1.501000000
O     2.060000000    -3.849000000     2.683000000
O     2.594000000    -4.346000000     0.660000000
