14
-75.39618
C    -0.410000000    -2.493000000    -1.297000000
H    -0.380000000    -3.140000000    -2.170000000
C     0.102000000    -1.223000000    -1.355000000
H     0.468000000    -0.765000000    -2.270000000
C    -0.052000000    -0.370000000    -0.287000000
H     0.377000000     0.647000000    -0.330000000
C    -0.636000000    -0.789000000     0.902000000
H    -0.604000000    -0.162000000     1.790000000
C    -1.024000000    -2.082000000     0.998000000
H    -1.254000000    -2.431000000     2.001000000
C    -0.955000000    -2.973000000    -0.062000000
C    -1.391000000    -4.399000000    -0.001000000
O    -1.818000000    -4.796000000     0.989000000
O    -1.278000000    -5.197000000    -0.937000000
