14
-88.06283
C    -0.265000000    -1.838000000    -0.790000000
H    -0.051000000    -2.651000000    -1.479000000
C     0.016000000    -0.545000000    -1.182000000
H     0.503000000    -0.419000000    -2.146000000
C    -0.080000000     0.546000000    -0.304000000
H     0.264000000     1.534000000    -0.621000000
C    -0.455000000     0.350000000     1.007000000
H    -0.448000000     1.181000000     1.708000000
C    -0.687000000    -0.952000000     1.471000000
H    -0.839000000    -1.097000000     2.538000000
C    -0.506000000    -2.026000000     0.589000000
C    -0.530000000    -3.470000000     1.065000000
O    -0.067000000    -3.692000000     2.198000000
O    -0.661000000    -4.363000000     0.260000000
