14
-88.15462
C    -0.247000000    -2.177000000    -0.722000000
H    -0.168000000    -2.715000000    -1.663000000
C     0.109000000    -0.829000000    -0.804000000
H     0.386000000    -0.449000000    -1.784000000
C     0.090000000    -0.006000000     0.354000000
H     0.415000000     1.047000000     0.300000000
C    -0.394000000    -0.520000000     1.525000000
H    -0.553000000     0.146000000     2.369000000
C    -0.836000000    -1.872000000     1.553000000
H    -1.146000000    -2.323000000     2.492000000
C    -0.730000000    -2.774000000     0.445000000
C    -1.212000000    -4.240000000     0.462000000
O    -1.343000000    -4.749000000     1.560000000
O    -1.086000000    -4.937000000    -0.556000000
