14
-75.97661
C     0.737000000    -1.935000000    -0.707000000
H     1.180000000    -2.340000000    -1.614000000
C     0.401000000    -0.585000000    -0.811000000
H     0.702000000     0.061000000    -1.632000000
C    -0.153000000    -0.021000000     0.306000000
H    -0.491000000     1.042000000     0.239000000
C    -0.483000000    -0.771000000     1.398000000
H    -0.883000000    -0.388000000     2.333000000
C    -0.106000000    -2.115000000     1.494000000
H    -0.238000000    -2.605000000     2.455000000
C     0.535000000    -2.743000000     0.391000000
C     0.709000000    -4.222000000     0.414000000
O     0.753000000    -4.759000000     1.521000000
O     1.231000000    -4.696000000    -0.523000000
