14
-89.09704
C     0.319000000    -1.702000000    -1.164000000
H     0.750000000    -2.285000000    -1.974000000
C     0.447000000    -0.335000000    -1.035000000
H     1.130000000     0.221000000    -1.672000000
C    -0.237000000     0.350000000     0.001000000
H    -0.102000000     1.423000000     0.241000000
C    -0.950000000    -0.334000000     1.010000000
H    -1.398000000     0.267000000     1.798000000
C    -1.162000000    -1.722000000     0.808000000
H    -1.931000000    -2.136000000     1.455000000
C    -0.560000000    -2.356000000    -0.254000000
C    -0.646000000    -3.873000000    -0.336000000
O    -0.823000000    -4.453000000     0.732000000
O    -0.540000000    -4.444000000    -1.399000000
