14
-87.39831
C     0.374000000    -1.878000000    -1.317000000
H     0.728000000    -2.384000000    -2.211000000
C     0.722000000    -0.555000000    -1.074000000
H     1.412000000    -0.068000000    -1.759000000
C     0.283000000     0.143000000     0.022000000
H     0.628000000     1.184000000     0.181000000
C    -0.509000000    -0.473000000     0.986000000
H    -0.670000000     0.082000000     1.907000000
C    -0.755000000    -1.880000000     0.867000000
H    -1.313000000    -2.464000000     1.594000000
C    -0.240000000    -2.596000000    -0.265000000
C    -0.446000000    -4.121000000    -0.406000000
O    -0.980000000    -4.720000000     0.525000000
O     0.107000000    -4.770000000    -1.280000000
