14
-87.29197
C     1.187000000    -2.058000000    -0.427000000
H     1.824000000    -2.656000000    -1.073000000
C     0.507000000    -0.887000000    -0.943000000
H     0.661000000    -0.480000000    -1.939000000
C    -0.328000000    -0.179000000    -0.167000000
H    -0.790000000     0.715000000    -0.571000000
C    -0.572000000    -0.621000000     1.148000000
H    -1.291000000    -0.057000000     1.737000000
C     0.028000000    -1.722000000     1.673000000
H    -0.212000000    -2.097000000     2.665000000
C     0.933000000    -2.523000000     0.857000000
C     1.324000000    -3.926000000     1.205000000
O     0.738000000    -4.359000000     2.206000000
O     1.945000000    -4.627000000     0.449000000
