14
-82.67442
C    -0.309000000    -1.871000000    -1.273000000
H    -0.242000000    -2.394000000    -2.224000000
C     0.316000000    -0.639000000    -1.220000000
H     0.877000000    -0.269000000    -2.074000000
C     0.075000000     0.200000000    -0.151000000
H     0.474000000     1.238000000    -0.038000000
C    -0.611000000    -0.268000000     0.974000000
H    -0.822000000     0.378000000     1.822000000
C    -1.012000000    -1.627000000     0.963000000
H    -1.508000000    -2.012000000     1.850000000
C    -0.910000000    -2.433000000    -0.162000000
C    -1.378000000    -3.908000000    -0.180000000
O    -1.757000000    -4.421000000     0.840000000
O    -1.283000000    -4.655000000    -1.123000000
