14
-87.67755
C     0.464000000    -2.050000000    -0.880000000
H     1.069000000    -2.640000000    -1.564000000
C     0.305000000    -0.669000000    -0.956000000
H     0.569000000    -0.163000000    -1.881000000
C    -0.326000000     0.006000000     0.097000000
H    -0.485000000     1.056000000     0.047000000
C    -0.690000000    -0.670000000     1.220000000
H    -1.274000000    -0.238000000     2.028000000
C    -0.582000000    -2.018000000     1.300000000
H    -0.898000000    -2.505000000     2.220000000
C     0.031000000    -2.785000000     0.274000000
C     0.152000000    -4.276000000     0.405000000
O    -0.537000000    -4.867000000     1.219000000
O     0.947000000    -4.846000000    -0.294000000
