14
-79.27406
C     1.774000000    -1.853000000    -0.489000000
H     2.425000000    -2.211000000    -1.283000000
C     0.728000000    -1.046000000    -0.855000000
H     0.707000000    -0.766000000    -1.905000000
C    -0.182000000    -0.548000000     0.068000000
H    -0.979000000     0.209000000    -0.176000000
C     0.005000000    -0.898000000     1.411000000
H    -0.707000000    -0.515000000     2.138000000
C     0.919000000    -1.944000000     1.758000000
H     0.916000000    -2.474000000     2.706000000
C     1.778000000    -2.423000000     0.783000000
C     2.586000000    -3.668000000     1.079000000
O     2.719000000    -4.039000000     2.246000000
O     2.678000000    -4.547000000     0.243000000
