14
-82.41037
C     0.575000000    -2.042000000    -0.429000000
H     0.801000000    -3.055000000    -0.749000000
C     0.868000000    -0.911000000    -1.192000000
H     1.445000000    -0.924000000    -2.113000000
C     0.251000000     0.294000000    -0.902000000
H     0.438000000     1.109000000    -1.646000000
C    -0.439000000     0.394000000     0.361000000
H    -0.727000000     1.414000000     0.605000000
C    -0.696000000    -0.711000000     1.174000000
H    -1.049000000    -0.678000000     2.202000000
C    -0.139000000    -1.951000000     0.759000000
C    -0.326000000    -3.240000000     1.511000000
O    -1.141000000    -3.314000000     2.433000000
O     0.291000000    -4.272000000     1.286000000
