14
-84.21138
C    -2.301000000     0.392000000    -1.174000000
H    -2.776000000    -0.090000000    -2.024000000
C    -1.067000000    -0.090000000    -0.881000000
H    -0.711000000    -0.920000000    -1.486000000
C    -0.318000000     0.454000000     0.148000000
H     0.689000000     0.105000000     0.370000000
C    -0.756000000     1.669000000     0.697000000
H    -0.086000000     2.231000000     1.344000000
C    -1.924000000     2.247000000     0.202000000
H    -2.160000000     3.286000000     0.419000000
C    -2.746000000     1.606000000    -0.747000000
C    -3.881000000     2.271000000    -1.401000000
O    -4.335000000     3.325000000    -0.955000000
O    -4.252000000     1.831000000    -2.474000000
