14
-81.34372
C     1.271000000    -1.477000000    -0.079000000
H     2.215000000    -1.891000000    -0.424000000
C     0.677000000    -0.226000000    -0.550000000
H     1.232000000     0.427000000    -1.218000000
C    -0.452000000     0.267000000     0.060000000
H    -0.834000000     1.315000000    -0.111000000
C    -1.088000000    -0.469000000     0.993000000
H    -2.015000000    -0.133000000     1.450000000
C    -0.647000000    -1.665000000     1.422000000
H    -1.190000000    -2.181000000     2.209000000
C     0.599000000    -2.195000000     0.953000000
C     1.069000000    -3.546000000     1.360000000
O     0.464000000    -4.217000000     2.190000000
O     2.064000000    -4.122000000     0.849000000
