14
-90.16291
C     1.487000000    -1.407000000     0.030000000
H     2.505000000    -1.724000000    -0.176000000
C     1.015000000    -0.153000000    -0.415000000
H     1.683000000     0.539000000    -0.923000000
C    -0.209000000     0.348000000    -0.056000000
H    -0.545000000     1.342000000    -0.355000000
C    -0.981000000    -0.422000000     0.765000000
H    -1.906000000    -0.022000000     1.172000000
C    -0.573000000    -1.667000000     1.212000000
H    -1.254000000    -2.261000000     1.816000000
C     0.631000000    -2.196000000     0.829000000
C     1.091000000    -3.530000000     1.324000000
O     0.289000000    -4.371000000     1.754000000
O     2.276000000    -3.767000000     1.350000000
