14
-85.15543
C     0.481000000    -2.918000000     1.677000000
H     0.975000000    -3.819000000     1.321000000
C     0.473000000    -1.733000000     0.911000000
H     1.023000000    -1.628000000    -0.021000000
C    -0.158000000    -0.548000000     1.278000000
H    -0.072000000     0.319000000     0.701000000
C    -0.914000000    -0.559000000     2.431000000
H    -1.425000000     0.342000000     2.759000000
C    -0.812000000    -1.718000000     3.234000000
H    -1.292000000    -1.748000000     4.208000000
C    -0.023000000    -2.831000000     2.946000000
C    -0.111000000    -4.111000000     3.704000000
O    -1.057000000    -4.269000000     4.538000000
O     0.622000000    -5.014000000     3.396000000
