14
-90.81163
C     1.477000000    -1.388000000     0.144000000
H     2.259000000    -1.963000000    -0.344000000
C     0.964000000    -0.209000000    -0.340000000
H     1.448000000     0.282000000    -1.180000000
C    -0.075000000     0.477000000     0.218000000
H    -0.443000000     1.384000000    -0.181000000
C    -0.698000000    -0.082000000     1.303000000
H    -1.571000000     0.361000000     1.777000000
C    -0.140000000    -1.263000000     1.882000000
H    -0.524000000    -1.576000000     2.850000000
C     0.932000000    -1.892000000     1.294000000
C     1.455000000    -3.195000000     1.845000000
O     1.121000000    -3.470000000     2.998000000
O     2.012000000    -4.031000000     1.099000000
