14
-87.95835
C    -2.451000000     1.478000000    -1.132000000
H    -2.981000000     1.109000000    -2.007000000
C    -1.499000000     0.621000000    -0.535000000
H    -1.283000000    -0.388000000    -0.875000000
C    -0.703000000     1.074000000     0.549000000
H    -0.128000000     0.339000000     1.137000000
C    -0.834000000     2.469000000     0.938000000
H    -0.191000000     2.925000000     1.686000000
C    -1.868000000     3.248000000     0.468000000
H    -2.033000000     4.232000000     0.899000000
C    -2.695000000     2.742000000    -0.581000000
C    -3.664000000     3.688000000    -1.285000000
O    -4.145000000     4.629000000    -0.632000000
O    -3.981000000     3.518000000    -2.430000000
