14
-87.16950
C     0.351000000    -2.879000000     1.677000000
H     0.817000000    -3.834000000     1.450000000
C     0.662000000    -1.865000000     0.729000000
H     1.497000000    -2.044000000     0.057000000
C     0.097000000    -0.575000000     0.822000000
H     0.624000000     0.275000000     0.317000000
C    -0.937000000    -0.364000000     1.754000000
H    -1.308000000     0.655000000     1.826000000
C    -1.355000000    -1.385000000     2.657000000
H    -2.130000000    -1.165000000     3.386000000
C    -0.703000000    -2.656000000     2.611000000
C    -1.280000000    -3.686000000     3.575000000
O    -2.318000000    -3.455000000     4.134000000
O    -0.652000000    -4.735000000     3.699000000
