14
-81.46392
C     0.452000000    -3.454000000     1.900000000
H     0.840000000    -4.462000000     2.029000000
C     0.648000000    -2.765000000     0.707000000
H     1.288000000    -3.230000000    -0.039000000
C     0.282000000    -1.442000000     0.513000000
H     0.548000000    -0.888000000    -0.406000000
C    -0.426000000    -0.796000000     1.502000000
H    -0.685000000     0.259000000     1.460000000
C    -0.673000000    -1.529000000     2.678000000
H    -1.191000000    -1.006000000     3.478000000
C    -0.230000000    -2.859000000     2.891000000
C    -0.479000000    -3.569000000     4.155000000
O    -1.402000000    -3.240000000     4.837000000
O     0.121000000    -4.567000000     4.466000000
