14
-78.01367
C     0.725000000    -2.523000000     1.366000000
H     1.724000000    -2.869000000     1.619000000
C     0.430000000    -1.898000000     0.145000000
H     1.198000000    -1.782000000    -0.616000000
C    -0.846000000    -1.379000000    -0.037000000
H    -0.993000000    -0.909000000    -0.988000000
C    -1.843000000    -1.402000000     0.998000000
H    -2.788000000    -0.894000000     0.827000000
C    -1.512000000    -2.231000000     2.035000000
H    -2.295000000    -2.366000000     2.777000000
C    -0.242000000    -2.718000000     2.337000000
C    -0.019000000    -3.494000000     3.624000000
O    -0.886000000    -3.808000000     4.374000000
O     1.033000000    -4.111000000     3.778000000
