14
-77.86314
C     0.480000000    -2.064000000     1.068000000
H     1.135000000    -2.832000000     0.665000000
C     0.338000000    -0.853000000     0.410000000
H     0.939000000    -0.633000000    -0.468000000
C    -0.597000000     0.053000000     0.849000000
H    -0.718000000     0.973000000     0.353000000
C    -1.301000000    -0.153000000     2.053000000
H    -1.890000000     0.621000000     2.539000000
C    -1.074000000    -1.303000000     2.783000000
H    -1.577000000    -1.502000000     3.726000000
C    -0.205000000    -2.308000000     2.266000000
C     0.081000000    -3.592000000     2.960000000
O    -0.599000000    -3.863000000     3.918000000
O     0.628000000    -4.507000000     2.444000000
