14
-83.78569
C     0.586000000    -2.981000000     1.079000000
H     1.056000000    -3.960000000     1.128000000
C     0.786000000    -2.082000000     0.009000000
H     1.458000000    -2.276000000    -0.823000000
C     0.201000000    -0.813000000     0.018000000
H     0.307000000    -0.051000000    -0.766000000
C    -0.468000000    -0.462000000     1.139000000
H    -0.847000000     0.543000000     1.308000000
C    -0.620000000    -1.310000000     2.216000000
H    -0.960000000    -0.896000000     3.162000000
C    -0.138000000    -2.599000000     2.209000000
C    -0.108000000    -3.421000000     3.451000000
O    -0.589000000    -2.952000000     4.465000000
O     0.247000000    -4.559000000     3.415000000
