14
-86.86115
C     0.543000000    -2.891000000     0.439000000
H     1.107000000    -3.709000000    -0.002000000
C     0.412000000    -1.712000000    -0.278000000
H     1.015000000    -1.571000000    -1.172000000
C    -0.353000000    -0.692000000     0.151000000
H    -0.486000000     0.219000000    -0.445000000
C    -1.073000000    -0.826000000     1.270000000
H    -1.658000000    -0.021000000     1.708000000
C    -1.006000000    -1.991000000     2.016000000
H    -1.599000000    -2.016000000     2.927000000
C    -0.240000000    -3.104000000     1.559000000
C    -0.208000000    -4.428000000     2.314000000
O    -1.215000000    -4.589000000     3.066000000
O     0.568000000    -5.333000000     2.092000000
