14
-87.06167
C    -1.433000000    -1.109000000     0.795000000
H    -2.038000000    -1.939000000     1.151000000
C    -0.045000000    -1.222000000     0.655000000
H     0.495000000    -2.090000000     1.025000000
C     0.620000000    -0.251000000    -0.131000000
H     1.688000000    -0.368000000    -0.301000000
C    -0.024000000     0.765000000    -0.740000000
H     0.508000000     1.478000000    -1.364000000
C    -1.384000000     0.937000000    -0.519000000
H    -1.938000000     1.739000000    -1.000000000
C    -2.111000000    -0.012000000     0.231000000
C    -3.587000000     0.165000000     0.543000000
O    -4.206000000     0.985000000    -0.055000000
O    -4.115000000    -0.498000000     1.403000000
