14
-87.25936
C    -0.108000000    -2.362000000    -0.027000000
H     0.000000000    -3.443000000    -0.044000000
C     0.643000000    -1.547000000    -0.854000000
H     1.194000000    -2.060000000    -1.638000000
C     0.552000000    -0.187000000    -0.748000000
H     1.123000000     0.367000000    -1.414000000
C    -0.147000000     0.397000000     0.285000000
H    -0.177000000     1.477000000     0.411000000
C    -0.788000000    -0.406000000     1.203000000
H    -1.438000000     0.062000000     1.938000000
C    -0.742000000    -1.778000000     1.116000000
C    -1.554000000    -2.569000000     2.050000000
O    -1.935000000    -2.097000000     3.098000000
O    -1.837000000    -3.739000000     1.728000000
