14
-83.70540
C    -0.570000000    -2.380000000    -0.066000000
H    -0.256000000    -3.412000000    -0.201000000
C     0.421000000    -1.395000000    -0.390000000
H     1.254000000    -1.788000000    -0.968000000
C     0.291000000    -0.100000000    -0.050000000
H     1.134000000     0.621000000    -0.245000000
C    -0.814000000     0.319000000     0.701000000
H    -0.908000000     1.365000000     0.984000000
C    -1.804000000    -0.644000000     1.051000000
H    -2.676000000    -0.394000000     1.650000000
C    -1.673000000    -1.956000000     0.634000000
C    -2.691000000    -2.954000000     1.145000000
O    -3.097000000    -2.684000000     2.322000000
O    -2.791000000    -4.036000000     0.682000000
