14
-86.98804
C    -1.972000000     0.932000000    -1.071000000
H    -2.897000000     0.566000000    -1.509000000
C    -1.115000000    -0.059000000    -0.742000000
H    -1.328000000    -1.114000000    -0.893000000
C     0.101000000     0.254000000    -0.166000000
H     0.783000000    -0.578000000    -0.043000000
C     0.366000000     1.556000000     0.203000000
H     1.339000000     1.910000000     0.535000000
C    -0.480000000     2.597000000    -0.270000000
H    -0.223000000     3.611000000     0.027000000
C    -1.725000000     2.296000000    -0.879000000
C    -2.523000000     3.418000000    -1.490000000
O    -2.105000000     4.593000000    -1.397000000
O    -3.611000000     3.187000000    -2.009000000
