14
-85.88974
C    -1.046000000    -3.013000000     0.822000000
H    -1.097000000    -4.072000000     0.582000000
C    -0.598000000    -2.103000000    -0.065000000
H    -0.028000000    -2.470000000    -0.915000000
C    -0.675000000    -0.717000000     0.181000000
H    -0.189000000     0.033000000    -0.419000000
C    -1.347000000    -0.318000000     1.375000000
H    -1.521000000     0.710000000     1.684000000
C    -1.805000000    -1.285000000     2.290000000
H    -2.342000000    -0.880000000     3.144000000
C    -1.628000000    -2.627000000     2.067000000
C    -1.904000000    -3.631000000     3.119000000
O    -2.664000000    -3.324000000     4.049000000
O    -1.660000000    -4.818000000     2.938000000
