14
-77.01358
C    -0.340000000    -2.087000000     0.504000000
H    -0.102000000    -3.093000000     0.170000000
C     0.198000000    -1.020000000    -0.283000000
H     0.696000000    -1.177000000    -1.236000000
C    -0.035000000     0.262000000     0.123000000
H     0.417000000     0.951000000    -0.489000000
C    -0.758000000     0.511000000     1.275000000
H    -0.944000000     1.538000000     1.580000000
C    -1.125000000    -0.570000000     2.153000000
H    -1.682000000    -0.326000000     3.055000000
C    -0.865000000    -1.877000000     1.801000000
C    -1.212000000    -3.094000000     2.616000000
O    -1.625000000    -2.884000000     3.726000000
O    -1.548000000    -4.156000000     2.085000000
