14
-90.36183
C    -0.401000000    -2.614000000     1.132000000
H    -0.292000000    -3.695000000     1.187000000
C     0.017000000    -1.925000000    -0.020000000
H     0.322000000    -2.539000000    -0.864000000
C    -0.008000000    -0.513000000    -0.138000000
H     0.239000000    -0.001000000    -1.027000000
C    -0.489000000     0.200000000     0.924000000
H    -0.434000000     1.286000000     0.911000000
C    -0.829000000    -0.434000000     2.123000000
H    -1.269000000     0.139000000     2.935000000
C    -0.802000000    -1.847000000     2.203000000
C    -1.552000000    -2.583000000     3.309000000
O    -2.187000000    -1.942000000     4.175000000
O    -1.571000000    -3.802000000     3.315000000
