14
-85.90797
C    -0.715000000    -2.894000000     1.223000000
H    -0.657000000    -3.978000000     1.260000000
C     0.049000000    -2.211000000     0.288000000
H     0.669000000    -2.871000000    -0.314000000
C    -0.107000000    -0.878000000     0.058000000
H     0.519000000    -0.488000000    -0.733000000
C    -0.979000000    -0.170000000     0.919000000
H    -1.140000000     0.885000000     0.715000000
C    -1.769000000    -0.810000000     1.886000000
H    -2.295000000    -0.273000000     2.671000000
C    -1.596000000    -2.211000000     2.077000000
C    -2.314000000    -2.977000000     3.177000000
O    -3.214000000    -2.480000000     3.818000000
O    -2.121000000    -4.186000000     3.321000000
