14
-73.80090
C    -1.561000000     0.229000000    -1.107000000
H    -2.272000000    -0.319000000    -1.720000000
C    -0.499000000    -0.390000000    -0.483000000
H    -0.280000000    -1.439000000    -0.669000000
C     0.317000000     0.260000000     0.350000000
H     1.180000000    -0.163000000     0.711000000
C     0.054000000     1.598000000     0.658000000
H     0.780000000     2.051000000     1.328000000
C    -1.132000000     2.234000000     0.161000000
H    -1.420000000     3.271000000     0.307000000
C    -1.935000000     1.513000000    -0.691000000
C    -3.166000000     2.115000000    -1.204000000
O    -3.694000000     3.062000000    -0.657000000
O    -3.443000000     2.006000000    -2.394000000
