14
-76.07422
C    -0.544000000    -2.401000000     0.165000000
H    -0.239000000    -3.365000000    -0.235000000
C     0.171000000    -1.234000000    -0.199000000
H     0.908000000    -1.307000000    -0.994000000
C    -0.168000000    -0.009000000     0.406000000
H     0.202000000     0.961000000     0.109000000
C    -1.134000000     0.061000000     1.471000000
H    -1.312000000     0.966000000     2.046000000
C    -1.689000000    -1.153000000     1.876000000
H    -2.489000000    -0.999000000     2.596000000
C    -1.392000000    -2.388000000     1.291000000
C    -2.123000000    -3.592000000     1.752000000
O    -2.829000000    -3.628000000     2.739000000
O    -2.377000000    -4.438000000     0.925000000
