14
-88.18892
C    -0.490000000    -2.739000000     1.647000000
H    -0.371000000    -3.811000000     1.785000000
C    -0.052000000    -2.122000000     0.495000000
H     0.514000000    -2.766000000    -0.173000000
C    -0.225000000    -0.735000000     0.344000000
H     0.376000000    -0.187000000    -0.484000000
C    -1.168000000    -0.081000000     1.085000000
H    -1.452000000     0.952000000     0.899000000
C    -1.711000000    -0.712000000     2.219000000
H    -2.426000000    -0.160000000     2.823000000
C    -1.363000000    -2.031000000     2.525000000
C    -1.921000000    -2.726000000     3.748000000
O    -2.696000000    -2.174000000     4.522000000
O    -1.631000000    -3.913000000     3.978000000
