14
-83.78765
C    -0.850000000    -2.595000000     1.186000000
H    -0.927000000    -3.668000000     1.344000000
C     0.045000000    -2.034000000     0.309000000
H     0.706000000    -2.647000000    -0.298000000
C     0.252000000    -0.642000000     0.336000000
H     0.879000000    -0.078000000    -0.336000000
C    -0.505000000     0.164000000     1.106000000
H    -0.389000000     1.245000000     1.088000000
C    -1.509000000    -0.345000000     1.861000000
H    -2.184000000     0.268000000     2.452000000
C    -1.657000000    -1.745000000     1.976000000
C    -2.886000000    -2.239000000     2.659000000
O    -3.579000000    -1.470000000     3.249000000
O    -3.176000000    -3.445000000     2.653000000
