14
-75.84308
C    -0.272000000    -1.817000000     0.691000000
H     0.098000000    -2.794000000     0.390000000
C     0.358000000    -0.687000000     0.129000000
H     1.197000000    -0.925000000    -0.521000000
C    -0.030000000     0.629000000     0.425000000
H     0.541000000     1.421000000     0.023000000
C    -1.151000000     0.790000000     1.216000000
H    -1.478000000     1.790000000     1.491000000
C    -1.764000000    -0.355000000     1.812000000
H    -2.627000000    -0.200000000     2.454000000
C    -1.290000000    -1.671000000     1.602000000
C    -2.079000000    -2.902000000     2.119000000
O    -2.790000000    -2.912000000     3.085000000
O    -1.886000000    -4.008000000     1.702000000
