14
-69.33612
C    -1.020000000    -2.279000000     1.551000000
H    -1.107000000    -3.350000000     1.716000000
C    -0.147000000    -1.787000000     0.597000000
H     0.360000000    -2.467000000    -0.083000000
C    -0.127000000    -0.449000000     0.350000000
H     0.340000000    -0.030000000    -0.518000000
C    -0.795000000     0.484000000     1.172000000
H    -0.644000000     1.551000000     1.023000000
C    -1.618000000    -0.037000000     2.239000000
H    -1.929000000     0.711000000     2.964000000
C    -1.809000000    -1.450000000     2.355000000
C    -2.705000000    -2.093000000     3.261000000
O    -3.326000000    -1.464000000     4.044000000
O    -3.076000000    -3.212000000     3.054000000
