14
-87.57220
C    -0.571000000    -1.856000000     0.100000000
H    -0.154000000    -2.856000000     0.189000000
C     0.196000000    -0.789000000    -0.382000000
H     1.225000000    -1.074000000    -0.584000000
C    -0.329000000     0.511000000    -0.405000000
H     0.333000000     1.258000000    -0.767000000
C    -1.658000000     0.763000000    -0.011000000
H    -2.009000000     1.790000000    -0.074000000
C    -2.422000000    -0.297000000     0.442000000
H    -3.410000000    -0.067000000     0.832000000
C    -1.880000000    -1.602000000     0.509000000
C    -2.560000000    -2.636000000     1.400000000
O    -3.701000000    -2.400000000     1.843000000
O    -2.179000000    -3.827000000     1.367000000
