14
-88.36736
C    -0.988000000    -3.274000000     1.115000000
H    -0.707000000    -4.231000000     0.683000000
C    -0.398000000    -2.099000000     0.588000000
H     0.094000000    -2.180000000    -0.378000000
C    -0.538000000    -0.935000000     1.310000000
H    -0.070000000     0.000000000     0.983000000
C    -1.270000000    -0.811000000     2.457000000
H    -1.358000000     0.121000000     3.009000000
C    -1.840000000    -1.945000000     3.002000000
H    -2.426000000    -1.770000000     3.900000000
C    -1.708000000    -3.204000000     2.366000000
C    -2.365000000    -4.416000000     2.951000000
O    -3.054000000    -4.306000000     3.977000000
O    -2.218000000    -5.476000000     2.406000000
