14
-79.73849
C    -0.684000000    -2.509000000     1.282000000
H    -0.642000000    -3.478000000     0.792000000
C     0.023000000    -1.465000000     0.720000000
H     0.633000000    -1.669000000    -0.157000000
C    -0.057000000    -0.189000000     1.296000000
H     0.600000000     0.591000000     0.832000000
C    -0.840000000     0.028000000     2.395000000
H    -0.928000000     1.017000000     2.838000000
C    -1.555000000    -1.015000000     2.968000000
H    -2.246000000    -0.770000000     3.771000000
C    -1.416000000    -2.294000000     2.471000000
C    -2.192000000    -3.399000000     3.074000000
O    -2.772000000    -3.242000000     4.039000000
O    -2.256000000    -4.479000000     2.452000000
