14
-83.77827
C    -1.852000000    -3.311000000     0.436000000
H    -2.184000000    -4.346000000     0.410000000
C    -0.739000000    -2.825000000    -0.333000000
H    -0.172000000    -3.535000000    -0.930000000
C    -0.401000000    -1.510000000    -0.219000000
H     0.410000000    -1.221000000    -0.833000000
C    -0.974000000    -0.677000000     0.744000000
H    -0.608000000     0.316000000     0.992000000
C    -2.043000000    -1.161000000     1.531000000
H    -2.405000000    -0.548000000     2.353000000
C    -2.479000000    -2.500000000     1.371000000
C    -3.543000000    -3.044000000     2.298000000
O    -4.134000000    -2.311000000     3.173000000
O    -3.933000000    -4.131000000     2.124000000
