14
-89.92860
C    -0.963000000    -1.894000000     0.496000000
H    -0.671000000    -2.889000000     0.171000000
C    -0.500000000    -0.721000000    -0.014000000
H     0.283000000    -0.718000000    -0.768000000
C    -0.718000000     0.487000000     0.629000000
H    -0.355000000     1.421000000     0.212000000
C    -1.449000000     0.611000000     1.787000000
H    -1.641000000     1.554000000     2.292000000
C    -1.995000000    -0.555000000     2.250000000
H    -2.667000000    -0.570000000     3.104000000
C    -1.785000000    -1.816000000     1.624000000
C    -2.390000000    -3.063000000     2.198000000
O    -3.221000000    -2.928000000     3.136000000
O    -2.086000000    -4.165000000     1.779000000
