14
-93.09527
C    -0.132000000    -2.351000000     0.150000000
H     0.173000000    -3.225000000    -0.421000000
C     0.250000000    -1.125000000    -0.365000000
H     0.865000000    -1.029000000    -1.256000000
C    -0.058000000     0.067000000     0.296000000
H     0.194000000     1.084000000    -0.073000000
C    -0.770000000    -0.046000000     1.475000000
H    -0.964000000     0.890000000     1.991000000
C    -1.210000000    -1.239000000     2.049000000
H    -1.691000000    -1.203000000     3.024000000
C    -0.938000000    -2.409000000     1.315000000
C    -1.485000000    -3.726000000     1.771000000
O    -2.340000000    -3.785000000     2.681000000
O    -1.144000000    -4.749000000     1.107000000
