14
-87.70439
C     0.201000000    -2.148000000     1.094000000
H     1.002000000    -2.853000000     0.892000000
C     0.439000000    -0.780000000     0.938000000
H     1.410000000    -0.477000000     0.554000000
C    -0.527000000     0.154000000     1.155000000
H    -0.355000000     1.228000000     1.032000000
C    -1.745000000    -0.277000000     1.735000000
H    -2.434000000     0.483000000     2.093000000
C    -1.929000000    -1.607000000     2.057000000
H    -2.854000000    -1.880000000     2.560000000
C    -0.990000000    -2.566000000     1.719000000
C    -1.252000000    -3.957000000     2.023000000
O    -2.053000000    -4.301000000     2.906000000
O    -0.807000000    -4.807000000     1.271000000
