14
-88.40541
C    -0.970000000    -2.649000000    -0.094000000
H    -0.927000000    -3.701000000    -0.364000000
C    -0.418000000    -1.662000000    -0.885000000
H    -0.022000000    -1.975000000    -1.848000000
C    -0.265000000    -0.383000000    -0.387000000
H     0.314000000     0.382000000    -0.997000000
C    -0.815000000    -0.105000000     0.855000000
H    -0.711000000     0.889000000     1.281000000
C    -1.469000000    -1.068000000     1.616000000
H    -1.862000000    -0.877000000     2.612000000
C    -1.559000000    -2.392000000     1.126000000
C    -2.230000000    -3.551000000     1.912000000
O    -2.865000000    -3.354000000     2.951000000
O    -2.206000000    -4.711000000     1.524000000
