14
-89.69728
C    -0.796000000    -3.234000000    -0.041000000
H    -1.142000000    -4.180000000    -0.448000000
C    -0.292000000    -2.185000000    -0.772000000
H    -0.305000000    -2.207000000    -1.859000000
C     0.110000000    -1.077000000    -0.027000000
H     0.689000000    -0.250000000    -0.436000000
C    -0.212000000    -0.938000000     1.316000000
H     0.096000000    -0.015000000     1.800000000
C    -0.829000000    -2.011000000     1.992000000
H    -1.145000000    -1.950000000     3.030000000
C    -1.112000000    -3.178000000     1.303000000
C    -1.685000000    -4.380000000     2.022000000
O    -1.533000000    -4.423000000     3.228000000
O    -2.029000000    -5.371000000     1.352000000
