14
-91.20720
C    -0.709000000    -2.294000000     1.303000000
H    -0.540000000    -3.313000000     0.965000000
C    -0.498000000    -1.226000000     0.407000000
H    -0.160000000    -1.480000000    -0.595000000
C    -0.753000000     0.075000000     0.733000000
H    -0.567000000     0.885000000     0.079000000
C    -1.305000000     0.379000000     2.000000000
H    -1.593000000     1.417000000     2.140000000
C    -1.510000000    -0.644000000     2.891000000
H    -1.982000000    -0.459000000     3.852000000
C    -1.176000000    -1.972000000     2.538000000
C    -1.555000000    -3.046000000     3.546000000
O    -2.150000000    -2.777000000     4.579000000
O    -1.165000000    -4.230000000     3.399000000
