14
-87.31256
C    -0.020000000    -1.893000000    -0.147000000
H    -0.194000000    -2.957000000    -0.294000000
C     0.191000000    -1.090000000    -1.274000000
H     0.230000000    -1.601000000    -2.233000000
C     0.478000000     0.245000000    -1.129000000
H     0.701000000     0.859000000    -2.056000000
C     0.448000000     0.862000000     0.140000000
H     0.732000000     1.903000000     0.273000000
C     0.286000000     0.006000000     1.265000000
H     0.140000000     0.447000000     2.247000000
C     0.096000000    -1.367000000     1.122000000
C    -0.014000000    -2.302000000     2.241000000
O     0.122000000    -1.921000000     3.438000000
O    -0.286000000    -3.500000000     2.110000000
