14
-86.50041
C    -0.735000000    -2.176000000     0.407000000
H    -0.723000000    -3.057000000    -0.229000000
C    -0.518000000    -0.954000000    -0.257000000
H    -0.298000000    -1.038000000    -1.319000000
C    -0.470000000     0.236000000     0.473000000
H    -0.104000000     1.234000000     0.042000000
C    -0.793000000     0.224000000     1.849000000
H    -0.774000000     1.181000000     2.365000000
C    -1.090000000    -0.973000000     2.514000000
H    -1.458000000    -0.937000000     3.536000000
C    -0.975000000    -2.187000000     1.813000000
C    -1.101000000    -3.472000000     2.605000000
O    -1.103000000    -3.401000000     3.821000000
O    -1.323000000    -4.487000000     2.041000000
