14
-88.01496
C     0.194000000    -2.287000000     0.134000000
H     0.618000000    -2.992000000    -0.577000000
C     0.178000000    -0.990000000    -0.400000000
H     0.482000000    -0.744000000    -1.414000000
C    -0.152000000     0.057000000     0.423000000
H     0.013000000     1.048000000     0.088000000
C    -0.600000000    -0.170000000     1.728000000
H    -0.824000000     0.640000000     2.417000000
C    -0.698000000    -1.448000000     2.230000000
H    -1.093000000    -1.734000000     3.201000000
C    -0.431000000    -2.576000000     1.371000000
C    -0.617000000    -3.999000000     1.892000000
O    -1.031000000    -4.181000000     3.048000000
O    -0.534000000    -4.903000000     1.090000000
