14
-80.54659
C    -0.753000000    -1.784000000    -0.797000000
H    -0.868000000    -2.603000000    -1.503000000
C     0.012000000    -0.658000000    -1.143000000
H     0.497000000    -0.493000000    -2.102000000
C     0.290000000     0.328000000    -0.244000000
H     1.002000000     1.045000000    -0.545000000
C    -0.229000000     0.169000000     1.080000000
H     0.012000000     0.844000000     1.897000000
C    -1.071000000    -0.838000000     1.377000000
H    -1.447000000    -1.001000000     2.383000000
C    -1.345000000    -1.883000000     0.470000000
C    -2.321000000    -2.997000000     0.775000000
O    -2.881000000    -2.900000000     1.845000000
O    -2.200000000    -4.017000000     0.193000000
