14
-88.23298
C    -0.298000000    -2.594000000     0.133000000
H    -0.398000000    -3.513000000    -0.439000000
C    -0.447000000    -1.410000000    -0.575000000
H    -0.627000000    -1.421000000    -1.647000000
C    -0.374000000    -0.192000000     0.098000000
H    -0.519000000     0.721000000    -0.476000000
C    -0.140000000    -0.156000000     1.472000000
H    -0.029000000     0.829000000     1.919000000
C     0.086000000    -1.372000000     2.172000000
H     0.379000000    -1.359000000     3.219000000
C     0.007000000    -2.612000000     1.500000000
C     0.209000000    -3.990000000     2.189000000
O     0.385000000    -4.041000000     3.360000000
O    -0.080000000    -5.035000000     1.592000000
