14
-82.26509
C    -0.741000000    -2.194000000    -0.593000000
H    -0.860000000    -3.101000000    -1.180000000
C    -0.130000000    -1.145000000    -1.251000000
H     0.078000000    -1.133000000    -2.318000000
C     0.234000000     0.073000000    -0.586000000
H     0.720000000     0.834000000    -1.169000000
C    -0.091000000     0.208000000     0.717000000
H     0.235000000     1.132000000     1.189000000
C    -0.818000000    -0.776000000     1.376000000
H    -1.021000000    -0.626000000     2.433000000
C    -1.122000000    -1.999000000     0.741000000
C    -1.778000000    -3.082000000     1.578000000
O    -2.244000000    -2.820000000     2.654000000
O    -1.744000000    -4.171000000     1.160000000
