14
-80.13015
C    -1.434000000     1.155000000    -1.008000000
H    -2.138000000     1.541000000    -1.741000000
C    -1.219000000    -0.204000000    -1.063000000
H    -1.865000000    -0.856000000    -1.645000000
C    -0.217000000    -0.769000000    -0.268000000
H     0.014000000    -1.851000000    -0.383000000
C     0.605000000     0.147000000     0.495000000
H     1.487000000    -0.289000000     0.958000000
C     0.273000000     1.454000000     0.559000000
H     0.769000000     2.065000000     1.308000000
C    -0.705000000     2.032000000    -0.263000000
C    -1.118000000     3.503000000    -0.308000000
O    -0.464000000     4.311000000     0.333000000
O    -1.791000000     3.980000000    -1.230000000
