14
-86.28417
C    -1.260000000    -1.645000000    -0.675000000
H    -1.497000000    -2.167000000    -1.599000000
C    -0.327000000    -0.572000000    -0.718000000
H     0.091000000    -0.355000000    -1.698000000
C     0.017000000     0.002000000     0.496000000
H     0.670000000     0.854000000     0.588000000
C    -0.367000000    -0.565000000     1.730000000
H    -0.091000000    -0.162000000     2.701000000
C    -1.403000000    -1.542000000     1.698000000
H    -1.658000000    -2.010000000     2.646000000
C    -1.847000000    -2.079000000     0.503000000
C    -2.645000000    -3.319000000     0.551000000
O    -2.820000000    -3.909000000     1.631000000
O    -3.144000000    -3.813000000    -0.451000000
