14
-86.78909
C    -0.826000000    -1.983000000    -0.260000000
H    -0.972000000    -2.805000000    -0.956000000
C    -0.071000000    -0.945000000    -0.721000000
H     0.219000000    -0.920000000    -1.768000000
C     0.261000000     0.095000000     0.097000000
H     0.739000000     0.923000000    -0.350000000
C    -0.102000000     0.092000000     1.408000000
H     0.112000000     0.995000000     1.974000000
C    -0.810000000    -0.992000000     1.947000000
H    -1.113000000    -0.928000000     2.989000000
C    -1.186000000    -2.054000000     1.113000000
C    -1.944000000    -3.186000000     1.765000000
O    -1.911000000    -3.430000000     2.949000000
O    -2.600000000    -3.922000000     1.031000000
