14
-84.76423
C    -2.491000000    -1.532000000    -0.455000000
H    -2.966000000    -2.007000000    -1.310000000
C    -1.433000000    -0.604000000    -0.626000000
H    -0.959000000    -0.429000000    -1.588000000
C    -0.926000000     0.100000000     0.445000000
H    -0.044000000     0.814000000     0.379000000
C    -1.474000000    -0.159000000     1.721000000
H    -1.010000000     0.302000000     2.588000000
C    -2.616000000    -0.902000000     1.915000000
H    -3.051000000    -0.981000000     2.907000000
C    -3.093000000    -1.541000000     0.798000000
C    -4.225000000    -2.532000000     1.013000000
O    -4.750000000    -2.713000000     2.080000000
O    -4.591000000    -3.267000000     0.083000000
