14
-81.81469
C    -3.101000000    -0.928000000     0.554000000
H    -3.979000000    -1.063000000    -0.072000000
C    -1.849000000    -0.639000000     0.005000000
H    -1.710000000    -0.569000000    -1.071000000
C    -0.707000000    -0.357000000     0.784000000
H     0.235000000    -0.004000000     0.359000000
C    -0.892000000    -0.448000000     2.155000000
H    -0.133000000    -0.081000000     2.840000000
C    -2.096000000    -0.785000000     2.763000000
H    -2.127000000    -0.901000000     3.844000000
C    -3.253000000    -1.073000000     1.938000000
C    -4.563000000    -1.503000000     2.491000000
O    -4.690000000    -1.834000000     3.657000000
O    -5.405000000    -1.864000000     1.726000000
