14
-88.72877
C    -2.824000000    -0.978000000     0.347000000
H    -3.515000000    -1.093000000    -0.484000000
C    -1.657000000    -0.234000000     0.086000000
H    -1.438000000    -0.025000000    -0.958000000
C    -0.751000000     0.013000000     1.122000000
H     0.177000000     0.545000000     0.929000000
C    -1.013000000    -0.376000000     2.416000000
H    -0.371000000    -0.068000000     3.238000000
C    -2.233000000    -1.107000000     2.681000000
H    -2.437000000    -1.516000000     3.668000000
C    -3.219000000    -1.330000000     1.647000000
C    -4.495000000    -2.009000000     1.908000000
O    -4.775000000    -2.450000000     3.021000000
O    -5.241000000    -2.235000000     0.957000000
