14
-89.05544
C    -1.902000000    -2.066000000    -0.557000000
H    -2.509000000    -2.650000000    -1.244000000
C    -0.850000000    -1.300000000    -1.143000000
H    -0.746000000    -1.214000000    -2.221000000
C     0.059000000    -0.617000000    -0.285000000
H     0.794000000     0.042000000    -0.782000000
C    -0.141000000    -0.535000000     1.075000000
H     0.462000000     0.115000000     1.704000000
C    -1.199000000    -1.286000000     1.608000000
H    -1.305000000    -1.243000000     2.689000000
C    -2.046000000    -2.080000000     0.829000000
C    -2.945000000    -3.115000000     1.456000000
O    -2.884000000    -3.219000000     2.654000000
O    -3.699000000    -3.787000000     0.786000000
