14
-86.11878
C    -2.016000000    -1.051000000    -0.183000000
H    -2.830000000    -1.385000000    -0.821000000
C    -0.843000000    -0.412000000    -0.674000000
H    -0.667000000    -0.259000000    -1.735000000
C     0.236000000    -0.099000000     0.192000000
H     1.222000000     0.136000000    -0.262000000
C     0.145000000    -0.357000000     1.629000000
H     0.938000000    -0.303000000     2.370000000
C    -1.124000000    -0.740000000     2.041000000
H    -1.281000000    -0.898000000     3.105000000
C    -2.154000000    -1.113000000     1.219000000
C    -3.429000000    -1.703000000     1.758000000
O    -3.589000000    -1.778000000     2.982000000
O    -4.199000000    -2.264000000     0.999000000
