14
-88.02425
C    -1.800000000     1.205000000    -0.606000000
H    -2.761000000     1.436000000    -1.058000000
C    -1.517000000    -0.101000000    -0.426000000
H    -2.233000000    -0.797000000    -0.855000000
C    -0.308000000    -0.485000000     0.122000000
H     0.012000000    -1.496000000     0.313000000
C     0.552000000     0.478000000     0.586000000
H     1.466000000     0.112000000     1.047000000
C     0.216000000     1.869000000     0.523000000
H     0.897000000     2.622000000     0.910000000
C    -0.947000000     2.260000000    -0.112000000
C    -1.167000000     3.724000000    -0.448000000
O    -0.420000000     4.547000000    -0.010000000
O    -2.118000000     4.042000000    -1.193000000
