14
-86.71556
C    -0.788000000    -2.299000000    -0.884000000
H    -1.273000000    -3.036000000    -1.520000000
C    -0.567000000    -1.033000000    -1.377000000
H    -0.790000000    -0.772000000    -2.408000000
C    -0.002000000    -0.092000000    -0.563000000
H     0.190000000     0.950000000    -0.934000000
C     0.269000000    -0.417000000     0.767000000
H     0.600000000     0.372000000     1.437000000
C     0.007000000    -1.699000000     1.285000000
H     0.309000000    -1.888000000     2.312000000
C    -0.450000000    -2.717000000     0.410000000
C    -0.758000000    -4.128000000     0.936000000
O    -0.928000000    -4.180000000     2.134000000
O    -1.097000000    -5.023000000     0.221000000
