14
-93.09333
C    -0.501000000    -2.603000000    -0.723000000
H    -0.744000000    -3.474000000    -1.325000000
C    -0.228000000    -1.364000000    -1.330000000
H    -0.308000000    -1.339000000    -2.414000000
C     0.003000000    -0.257000000    -0.524000000
H     0.158000000     0.661000000    -1.000000000
C     0.044000000    -0.382000000     0.869000000
H     0.392000000     0.484000000     1.426000000
C    -0.243000000    -1.648000000     1.427000000
H    -0.184000000    -1.741000000     2.508000000
C    -0.529000000    -2.752000000     0.632000000
C    -0.867000000    -4.128000000     1.202000000
O    -0.800000000    -4.257000000     2.414000000
O    -1.454000000    -4.905000000     0.434000000
