14
-82.90889
C    -0.689000000    -2.447000000    -0.576000000
H    -0.704000000    -3.257000000    -1.301000000
C    -0.318000000    -1.137000000    -0.942000000
H    -0.106000000    -0.828000000    -1.963000000
C    -0.078000000    -0.166000000     0.000000000
H     0.214000000     0.824000000    -0.325000000
C    -0.112000000    -0.522000000     1.335000000
H     0.099000000     0.223000000     2.099000000
C    -0.392000000    -1.848000000     1.685000000
H    -0.354000000    -2.157000000     2.726000000
C    -0.692000000    -2.793000000     0.776000000
C    -1.129000000    -4.177000000     1.155000000
O    -1.461000000    -4.427000000     2.300000000
O    -1.341000000    -5.041000000     0.346000000
