14
-84.78380
C    -1.234000000     1.507000000    -1.704000000
H    -1.788000000     1.756000000    -2.606000000
C    -0.827000000     0.215000000    -1.497000000
H    -1.037000000    -0.539000000    -2.251000000
C    -0.118000000    -0.098000000    -0.278000000
H     0.141000000    -1.162000000    -0.063000000
C     0.127000000     0.910000000     0.646000000
H     0.612000000     0.719000000     1.599000000
C    -0.332000000     2.223000000     0.391000000
H    -0.325000000     3.088000000     1.049000000
C    -0.998000000     2.531000000    -0.788000000
C    -1.357000000     3.978000000    -1.082000000
O    -1.011000000     4.983000000    -0.329000000
O    -2.089000000     4.298000000    -1.991000000
