14
-82.36201
C    -1.845000000     1.716000000    -1.787000000
H    -2.301000000     2.260000000    -2.610000000
C    -1.793000000     0.370000000    -1.582000000
H    -2.293000000    -0.314000000    -2.262000000
C    -1.044000000    -0.266000000    -0.579000000
H    -0.997000000    -1.305000000    -0.450000000
C    -0.390000000     0.523000000     0.311000000
H     0.269000000     0.098000000     1.064000000
C    -0.614000000     1.874000000     0.335000000
H    -0.140000000     2.526000000     1.064000000
C    -1.302000000     2.485000000    -0.793000000
C    -1.529000000     3.971000000    -0.848000000
O    -1.319000000     4.740000000     0.073000000
O    -2.133000000     4.472000000    -1.838000000
