14
-83.40347
C    -0.062000000    -2.423000000     0.343000000
H     0.695000000    -3.193000000     0.471000000
C     0.449000000    -1.220000000    -0.170000000
H     1.518000000    -1.097000000    -0.318000000
C    -0.389000000    -0.121000000    -0.288000000
H     0.004000000     0.837000000    -0.641000000
C    -1.737000000    -0.158000000     0.004000000
H    -2.329000000     0.703000000    -0.294000000
C    -2.274000000    -1.419000000     0.208000000
H    -3.354000000    -1.529000000     0.268000000
C    -1.439000000    -2.533000000     0.472000000
C    -1.997000000    -3.886000000     0.889000000
O    -3.203000000    -4.017000000     0.872000000
O    -1.318000000    -4.875000000     1.040000000
