14
-89.37370
C    -0.712000000    -2.026000000     0.626000000
H    -0.346000000    -3.026000000     0.841000000
C     0.174000000    -1.032000000     0.087000000
H     1.231000000    -1.174000000    -0.123000000
C    -0.302000000     0.308000000    -0.022000000
H     0.402000000     1.051000000    -0.379000000
C    -1.640000000     0.606000000     0.262000000
H    -1.928000000     1.636000000     0.068000000
C    -2.471000000    -0.400000000     0.690000000
H    -3.482000000    -0.047000000     0.877000000
C    -2.008000000    -1.709000000     0.980000000
C    -2.826000000    -2.802000000     1.603000000
O    -3.981000000    -2.484000000     2.004000000
O    -2.350000000    -3.912000000     1.928000000
