14
-81.89414
C    -0.162000000    -2.471000000     1.113000000
H     0.234000000    -3.257000000     1.751000000
C     0.651000000    -1.623000000     0.371000000
H     1.719000000    -1.828000000     0.374000000
C     0.140000000    -0.531000000    -0.358000000
H     0.712000000     0.208000000    -0.911000000
C    -1.163000000    -0.240000000    -0.121000000
H    -1.488000000     0.623000000    -0.697000000
C    -2.097000000    -1.024000000     0.575000000
H    -3.148000000    -0.752000000     0.527000000
C    -1.583000000    -2.152000000     1.196000000
C    -2.544000000    -3.180000000     1.879000000
O    -3.696000000    -2.895000000     2.051000000
O    -2.110000000    -4.244000000     2.167000000
