14
-88.70449
C    -0.761000000    -2.137000000     1.911000000
H    -0.440000000    -2.849000000     2.666000000
C     0.109000000    -1.324000000     1.183000000
H     1.190000000    -1.428000000     1.238000000
C    -0.395000000    -0.314000000     0.388000000
H     0.339000000     0.301000000    -0.093000000
C    -1.737000000    -0.017000000     0.362000000
H    -2.128000000     0.760000000    -0.291000000
C    -2.634000000    -0.875000000     1.048000000
H    -3.709000000    -0.713000000     1.061000000
C    -2.142000000    -1.913000000     1.807000000
C    -3.132000000    -2.798000000     2.520000000
O    -4.361000000    -2.652000000     2.335000000
O    -2.747000000    -3.604000000     3.287000000
