14
-87.46868
C    -0.930000000     2.334000000    -0.622000000
H    -1.748000000     2.374000000    -1.337000000
C    -0.100000000     1.202000000    -0.705000000
H    -0.273000000     0.446000000    -1.467000000
C     0.788000000     0.913000000     0.281000000
H     1.316000000    -0.100000000     0.247000000
C     0.944000000     1.876000000     1.321000000
H     1.727000000     1.739000000     2.062000000
C     0.177000000     3.059000000     1.355000000
H     0.386000000     3.745000000     2.172000000
C    -0.904000000     3.259000000     0.443000000
C    -1.777000000     4.460000000     0.497000000
O    -1.724000000     5.337000000     1.348000000
O    -2.673000000     4.507000000    -0.385000000
