14
-80.06744
C    -1.850000000    -2.863000000     0.020000000
H    -1.858000000    -3.942000000    -0.114000000
C    -0.761000000    -2.091000000    -0.330000000
H     0.112000000    -2.715000000    -0.500000000
C    -0.774000000    -0.729000000    -0.234000000
H     0.179000000    -0.177000000    -0.429000000
C    -1.860000000    -0.080000000     0.275000000
H    -1.776000000     1.001000000     0.349000000
C    -2.937000000    -0.768000000     0.655000000
H    -3.750000000    -0.194000000     1.092000000
C    -2.983000000    -2.142000000     0.509000000
C    -4.242000000    -2.986000000     0.808000000
O    -5.211000000    -2.370000000     1.233000000
O    -4.365000000    -4.141000000     0.555000000
