14
-87.49619
C    -1.851000000    -1.864000000     0.575000000
H    -1.885000000    -2.942000000     0.706000000
C    -0.783000000    -1.245000000    -0.099000000
H     0.052000000    -1.806000000    -0.511000000
C    -0.720000000     0.105000000    -0.184000000
H     0.235000000     0.538000000    -0.529000000
C    -1.799000000     0.834000000     0.225000000
H    -1.718000000     1.902000000     0.042000000
C    -2.916000000     0.287000000     0.845000000
H    -3.594000000     1.037000000     1.243000000
C    -2.883000000    -1.034000000     1.062000000
C    -4.154000000    -1.743000000     1.663000000
O    -5.032000000    -0.967000000     2.056000000
O    -4.211000000    -2.971000000     1.779000000
