14
-91.47786
C    -1.349000000    -2.985000000    -0.306000000
H    -1.202000000    -4.061000000    -0.358000000
C    -0.300000000    -2.073000000    -0.427000000
H     0.696000000    -2.486000000    -0.564000000
C    -0.417000000    -0.706000000    -0.252000000
H     0.460000000    -0.054000000    -0.384000000
C    -1.671000000    -0.165000000     0.039000000
H    -1.782000000     0.911000000     0.139000000
C    -2.732000000    -1.015000000     0.135000000
H    -3.704000000    -0.530000000     0.142000000
C    -2.613000000    -2.434000000    -0.073000000
C    -3.772000000    -3.388000000     0.039000000
O    -4.846000000    -2.854000000     0.216000000
O    -3.525000000    -4.621000000     0.104000000
