14
-76.62476
C    -0.994000000    -2.306000000    -0.514000000
H    -0.815000000    -3.322000000    -0.858000000
C     0.068000000    -1.455000000    -0.234000000
H     1.109000000    -1.703000000    -0.426000000
C    -0.134000000    -0.156000000     0.200000000
H     0.707000000     0.484000000     0.465000000
C    -1.410000000     0.226000000     0.493000000
H    -1.569000000     1.237000000     0.860000000
C    -2.487000000    -0.672000000     0.359000000
H    -3.437000000    -0.355000000     0.782000000
C    -2.263000000    -1.946000000    -0.173000000
C    -3.383000000    -3.000000000    -0.218000000
O    -4.492000000    -2.857000000     0.181000000
O    -3.224000000    -3.875000000    -1.023000000
