14
-87.15749
C    -0.641000000    -1.523000000    -0.519000000
H    -0.248000000    -2.520000000    -0.701000000
C     0.160000000    -0.446000000    -0.323000000
H     1.221000000    -0.453000000    -0.557000000
C    -0.416000000     0.741000000     0.102000000
H     0.253000000     1.550000000     0.279000000
C    -1.791000000     0.892000000     0.180000000
H    -2.099000000     1.865000000     0.554000000
C    -2.608000000    -0.130000000    -0.229000000
H    -3.676000000     0.056000000    -0.147000000
C    -2.056000000    -1.373000000    -0.578000000
C    -3.059000000    -2.511000000    -0.786000000
O    -4.229000000    -2.204000000    -0.818000000
O    -2.739000000    -3.701000000    -0.878000000
