14
-87.70296
C    -1.627000000    -2.230000000    -0.050000000
H    -1.648000000    -3.305000000     0.112000000
C    -0.402000000    -1.582000000    -0.112000000
H     0.545000000    -2.113000000    -0.067000000
C    -0.330000000    -0.186000000    -0.258000000
H     0.675000000     0.222000000    -0.460000000
C    -1.466000000     0.582000000    -0.206000000
H    -1.279000000     1.650000000    -0.274000000
C    -2.678000000    -0.053000000    -0.059000000
H    -3.599000000     0.523000000    -0.013000000
C    -2.752000000    -1.426000000    -0.033000000
C    -4.029000000    -2.129000000     0.286000000
O    -5.075000000    -1.556000000     0.111000000
O    -4.054000000    -3.284000000     0.747000000
