14
-87.53529
C    -1.380000000    -1.689000000    -0.484000000
H    -1.278000000    -2.702000000    -0.862000000
C    -0.248000000    -0.895000000    -0.385000000
H     0.733000000    -1.244000000    -0.695000000
C    -0.432000000     0.357000000     0.204000000
H     0.438000000     0.972000000     0.339000000
C    -1.659000000     0.731000000     0.678000000
H    -1.743000000     1.708000000     1.147000000
C    -2.805000000    -0.095000000     0.568000000
H    -3.778000000     0.245000000     0.915000000
C    -2.623000000    -1.369000000     0.061000000
C    -3.807000000    -2.335000000    -0.062000000
O    -4.923000000    -1.895000000    -0.169000000
O    -3.694000000    -3.553000000    -0.122000000
