14
-89.17873
C    -2.220000000     2.382000000     0.376000000
H    -3.297000000     2.493000000     0.273000000
C    -1.624000000     1.223000000    -0.098000000
H    -2.174000000     0.393000000    -0.534000000
C    -0.251000000     1.054000000     0.008000000
H     0.177000000     0.051000000    -0.183000000
C     0.518000000     2.110000000     0.582000000
H     1.589000000     1.969000000     0.704000000
C    -0.092000000     3.316000000     0.954000000
H     0.432000000     4.095000000     1.502000000
C    -1.468000000     3.444000000     0.886000000
C    -2.186000000     4.768000000     1.100000000
O    -1.621000000     5.851000000     1.294000000
O    -3.406000000     4.777000000     1.058000000
