14
-89.00840
C    -1.135000000    -1.283000000     1.908000000
H    -1.077000000    -2.359000000     2.050000000
C    -0.333000000    -0.724000000     0.916000000
H     0.278000000    -1.335000000     0.256000000
C    -0.490000000     0.635000000     0.605000000
H    -0.004000000     0.961000000    -0.343000000
C    -1.308000000     1.378000000     1.350000000
H    -1.398000000     2.417000000     1.044000000
C    -2.144000000     0.845000000     2.350000000
H    -2.826000000     1.488000000     2.901000000
C    -2.075000000    -0.553000000     2.544000000
C    -2.996000000    -1.100000000     3.622000000
O    -3.759000000    -0.347000000     4.276000000
O    -2.970000000    -2.326000000     3.755000000
