14
-90.70732
C    -0.853000000    -1.052000000     0.747000000
H    -0.899000000    -2.134000000     0.843000000
C     0.085000000    -0.459000000    -0.127000000
H     0.795000000    -1.073000000    -0.676000000
C     0.120000000     0.923000000    -0.228000000
H     0.882000000     1.360000000    -0.924000000
C    -0.828000000     1.688000000     0.441000000
H    -0.894000000     2.762000000     0.286000000
C    -1.731000000     1.049000000     1.306000000
H    -2.473000000     1.587000000     1.891000000
C    -1.724000000    -0.296000000     1.522000000
C    -2.743000000    -0.978000000     2.474000000
O    -3.415000000    -0.264000000     3.181000000
O    -2.876000000    -2.164000000     2.459000000
