14
-91.74684
C    -0.485000000    -1.627000000     1.412000000
H    -0.139000000    -2.550000000     1.871000000
C     0.253000000    -1.108000000     0.344000000
H     1.174000000    -1.562000000    -0.012000000
C    -0.053000000     0.129000000    -0.162000000
H     0.607000000     0.637000000    -0.913000000
C    -1.088000000     0.914000000     0.357000000
H    -1.267000000     1.898000000    -0.070000000
C    -1.880000000     0.373000000     1.360000000
H    -2.732000000     0.964000000     1.686000000
C    -1.647000000    -0.972000000     1.894000000
C    -2.511000000    -1.498000000     3.023000000
O    -3.270000000    -0.731000000     3.607000000
O    -2.287000000    -2.668000000     3.336000000
