14
-83.83138
C    -1.021000000    -1.651000000     0.695000000
H    -0.833000000    -2.720000000     0.754000000
C     0.051000000    -0.924000000     0.266000000
H     0.909000000    -1.422000000    -0.178000000
C    -0.042000000     0.467000000     0.189000000
H     0.713000000     1.113000000    -0.224000000
C    -1.201000000     1.106000000     0.553000000
H    -1.372000000     2.175000000     0.456000000
C    -2.271000000     0.351000000     0.920000000
H    -3.182000000     0.850000000     1.243000000
C    -2.221000000    -1.045000000     1.041000000
C    -3.391000000    -1.851000000     1.393000000
O    -4.456000000    -1.367000000     1.703000000
O    -3.173000000    -3.035000000     1.634000000
