14
-86.91190
C    -0.584000000    -1.424000000     0.501000000
H    -0.584000000    -2.461000000     0.175000000
C     0.236000000    -0.637000000    -0.269000000
H     0.859000000    -1.096000000    -1.032000000
C     0.314000000     0.755000000    -0.021000000
H     0.999000000     1.385000000    -0.570000000
C    -0.477000000     1.337000000     0.985000000
H    -0.386000000     2.402000000     1.182000000
C    -1.247000000     0.466000000     1.751000000
H    -1.945000000     0.962000000     2.421000000
C    -1.372000000    -0.901000000     1.468000000
C    -2.297000000    -1.802000000     2.201000000
O    -3.160000000    -1.317000000     2.867000000
O    -2.206000000    -3.032000000     2.061000000
