14
-85.36466
C    -0.474000000    -1.622000000     0.660000000
H    -0.467000000    -2.708000000     0.617000000
C     0.364000000    -0.886000000    -0.144000000
H     1.078000000    -1.394000000    -0.787000000
C     0.325000000     0.487000000    -0.186000000
H     0.887000000     1.149000000    -0.975000000
C    -0.459000000     1.162000000     0.720000000
H    -0.430000000     2.238000000     0.876000000
C    -1.399000000     0.486000000     1.521000000
H    -1.978000000     1.154000000     2.152000000
C    -1.430000000    -0.944000000     1.486000000
C    -2.314000000    -1.636000000     2.500000000
O    -3.131000000    -1.021000000     3.171000000
O    -2.218000000    -2.838000000     2.562000000
