14
-87.54926
C    -2.270000000    -1.643000000     0.786000000
H    -2.641000000    -2.495000000     1.350000000
C    -0.937000000    -1.277000000     0.903000000
H    -0.221000000    -1.776000000     1.552000000
C    -0.390000000    -0.234000000     0.101000000
H     0.652000000     0.110000000     0.151000000
C    -1.231000000     0.479000000    -0.701000000
H    -0.819000000     1.305000000    -1.276000000
C    -2.593000000     0.134000000    -0.763000000
H    -3.254000000     0.710000000    -1.406000000
C    -3.161000000    -0.960000000    -0.058000000
C    -4.566000000    -1.275000000    -0.302000000
O    -5.304000000    -0.592000000    -1.029000000
O    -4.962000000    -2.299000000     0.172000000
