14
-81.61636
C    -1.514000000    -2.197000000     0.053000000
H    -1.662000000    -3.266000000    -0.072000000
C    -0.407000000    -1.547000000    -0.446000000
H     0.333000000    -2.159000000    -0.957000000
C    -0.191000000    -0.203000000    -0.338000000
H     0.758000000     0.214000000    -0.729000000
C    -1.100000000     0.597000000     0.381000000
H    -0.854000000     1.632000000     0.602000000
C    -2.213000000    -0.024000000     0.917000000
H    -2.842000000     0.616000000     1.530000000
C    -2.451000000    -1.410000000     0.705000000
C    -3.678000000    -2.007000000     1.258000000
O    -4.411000000    -1.323000000     1.916000000
O    -4.050000000    -3.091000000     0.946000000
