14
-84.89315
C    -1.001000000    -1.359000000     1.556000000
H    -0.956000000    -2.406000000     1.845000000
C    -0.099000000    -0.967000000     0.505000000
H     0.530000000    -1.638000000    -0.074000000
C    -0.046000000     0.408000000     0.192000000
H     0.634000000     0.816000000    -0.574000000
C    -0.903000000     1.291000000     0.864000000
H    -0.909000000     2.362000000     0.679000000
C    -1.683000000     0.850000000     1.923000000
H    -2.221000000     1.651000000     2.424000000
C    -1.687000000    -0.480000000     2.319000000
C    -2.627000000    -0.995000000     3.327000000
O    -3.312000000    -0.232000000     4.068000000
O    -3.008000000    -2.180000000     3.230000000
