14
-79.83597
C    -1.042000000    -2.158000000    -0.182000000
H    -1.110000000    -3.129000000    -0.668000000
C     0.022000000    -1.293000000    -0.416000000
H     0.782000000    -1.519000000    -1.160000000
C     0.163000000    -0.129000000     0.262000000
H     0.878000000     0.656000000     0.042000000
C    -0.728000000     0.225000000     1.200000000
H    -0.744000000     1.202000000     1.676000000
C    -1.721000000    -0.685000000     1.548000000
H    -2.357000000    -0.415000000     2.387000000
C    -1.894000000    -1.951000000     0.912000000
C    -2.941000000    -2.971000000     1.348000000
O    -3.850000000    -2.708000000     2.151000000
O    -3.101000000    -4.009000000     0.740000000
