14
-84.46887
C    -1.828000000     1.276000000    -0.426000000
H    -2.640000000     1.196000000    -1.145000000
C    -0.856000000     0.273000000    -0.419000000
H    -0.970000000    -0.633000000    -1.009000000
C     0.185000000     0.341000000     0.536000000
H     0.807000000    -0.557000000     0.711000000
C     0.444000000     1.480000000     1.277000000
H     1.409000000     1.554000000     1.771000000
C    -0.573000000     2.505000000     1.229000000
H    -0.503000000     3.422000000     1.808000000
C    -1.710000000     2.359000000     0.399000000
C    -2.707000000     3.432000000     0.310000000
O    -2.729000000     4.353000000     1.140000000
O    -3.358000000     3.533000000    -0.689000000
