14
-88.26968
C    -2.485000000    -0.671000000    -0.711000000
H    -2.739000000    -1.524000000    -1.336000000
C    -1.261000000     0.022000000    -0.689000000
H    -0.429000000    -0.341000000    -1.286000000
C    -1.046000000     1.087000000     0.147000000
H    -0.088000000     1.542000000     0.237000000
C    -2.092000000     1.585000000     0.946000000
H    -1.905000000     2.527000000     1.454000000
C    -3.306000000     0.927000000     0.928000000
H    -4.130000000     1.307000000     1.525000000
C    -3.511000000    -0.243000000     0.141000000
C    -4.764000000    -0.993000000     0.148000000
O    -5.785000000    -0.613000000     0.750000000
O    -4.824000000    -2.059000000    -0.410000000
