14
-83.89283
C    -0.734000000    -1.595000000    -0.477000000
H    -0.685000000    -2.531000000    -1.028000000
C     0.250000000    -0.604000000    -0.662000000
H     1.083000000    -0.990000000    -1.244000000
C     0.144000000     0.590000000     0.023000000
H     0.890000000     1.369000000    -0.040000000
C    -1.000000000     0.867000000     0.862000000
H    -1.077000000     1.750000000     1.491000000
C    -1.992000000    -0.101000000     0.873000000
H    -2.898000000     0.046000000     1.455000000
C    -1.892000000    -1.380000000     0.235000000
C    -2.953000000    -2.429000000     0.256000000
O    -4.073000000    -2.188000000     0.638000000
O    -2.645000000    -3.642000000     0.193000000
