14
-88.19163
C    -2.411000000    -0.978000000    -0.592000000
H    -2.302000000    -1.773000000    -1.325000000
C    -1.275000000    -0.221000000    -0.386000000
H    -0.349000000    -0.457000000    -0.904000000
C    -1.293000000     0.941000000     0.347000000
H    -0.442000000     1.567000000     0.467000000
C    -2.455000000     1.283000000     0.979000000
H    -2.588000000     2.170000000     1.593000000
C    -3.647000000     0.554000000     0.770000000
H    -4.592000000     0.869000000     1.206000000
C    -3.641000000    -0.609000000    -0.024000000
C    -4.919000000    -1.430000000    -0.283000000
O    -6.006000000    -1.088000000     0.181000000
O    -4.858000000    -2.549000000    -0.772000000
