14
-81.81437
C    -1.534000000    -1.181000000    -0.457000000
H    -1.839000000    -2.041000000    -1.048000000
C    -0.252000000    -0.629000000    -0.527000000
H     0.496000000    -1.163000000    -1.108000000
C     0.120000000     0.533000000     0.124000000
H     1.139000000     0.933000000    -0.042000000
C    -0.815000000     1.204000000     0.907000000
H    -0.579000000     2.182000000     1.319000000
C    -2.134000000     0.706000000     0.904000000
H    -2.907000000     1.286000000     1.401000000
C    -2.524000000    -0.508000000     0.291000000
C    -3.938000000    -0.976000000     0.409000000
O    -4.789000000    -0.331000000     0.916000000
O    -4.176000000    -2.163000000     0.263000000
