14
-83.43362
C    -1.747000000    -1.578000000    -0.459000000
H    -1.971000000    -2.622000000    -0.662000000
C    -0.447000000    -1.149000000    -0.250000000
H     0.428000000    -1.774000000    -0.409000000
C    -0.215000000     0.224000000     0.045000000
H     0.739000000     0.654000000     0.149000000
C    -1.314000000     1.126000000     0.249000000
H    -1.197000000     2.175000000     0.505000000
C    -2.565000000     0.571000000     0.173000000
H    -3.325000000     1.288000000     0.474000000
C    -2.823000000    -0.721000000    -0.215000000
C    -4.220000000    -1.250000000    -0.117000000
O    -5.222000000    -0.601000000     0.209000000
O    -4.454000000    -2.359000000    -0.589000000
