14
-89.14010
C    -1.326000000    -2.050000000    -0.394000000
H    -1.627000000    -3.049000000    -0.700000000
C    -0.075000000    -1.544000000    -0.770000000
H     0.518000000    -2.157000000    -1.444000000
C     0.397000000    -0.361000000    -0.269000000
H     1.362000000    -0.049000000    -0.519000000
C    -0.492000000     0.445000000     0.392000000
H    -0.142000000     1.381000000     0.820000000
C    -1.747000000    -0.006000000     0.765000000
H    -2.339000000     0.666000000     1.380000000
C    -2.217000000    -1.268000000     0.385000000
C    -3.596000000    -1.714000000     0.546000000
O    -4.198000000    -1.341000000     1.540000000
O    -4.079000000    -2.468000000    -0.306000000
