14
-86.03013
C    -2.015000000    -1.579000000    -0.877000000
H    -2.518000000    -2.478000000    -1.225000000
C    -0.702000000    -1.269000000    -1.169000000
H    -0.079000000    -1.961000000    -1.729000000
C    -0.153000000    -0.101000000    -0.568000000
H     0.874000000     0.095000000    -0.678000000
C    -0.938000000     0.749000000     0.149000000
H    -0.470000000     1.606000000     0.627000000
C    -2.242000000     0.462000000     0.377000000
H    -2.816000000     1.067000000     1.074000000
C    -2.842000000    -0.732000000    -0.140000000
C    -4.297000000    -0.994000000     0.226000000
O    -4.806000000    -0.239000000     1.037000000
O    -4.915000000    -2.073000000    -0.003000000
