14
-87.23256
C    -1.757000000    -2.294000000    -0.669000000
H    -2.020000000    -3.328000000    -0.874000000
C    -0.491000000    -1.743000000    -0.904000000
H     0.314000000    -2.359000000    -1.297000000
C    -0.224000000    -0.436000000    -0.537000000
H     0.729000000    -0.079000000    -0.806000000
C    -1.248000000     0.302000000     0.132000000
H    -1.141000000     1.347000000     0.413000000
C    -2.482000000    -0.318000000     0.364000000
H    -3.232000000     0.241000000     0.918000000
C    -2.789000000    -1.595000000    -0.057000000
C    -4.100000000    -2.300000000     0.379000000
O    -5.053000000    -1.576000000     0.495000000
O    -4.219000000    -3.501000000     0.396000000
