14
-91.05814
C    -1.088000000     1.075000000    -0.367000000
H    -1.786000000     0.944000000    -1.190000000
C    -0.061000000     0.097000000    -0.236000000
H    -0.023000000    -0.790000000    -0.864000000
C     0.966000000     0.302000000     0.688000000
H     1.811000000    -0.403000000     0.781000000
C     1.050000000     1.457000000     1.506000000
H     1.924000000     1.518000000     2.148000000
C    -0.051000000     2.367000000     1.424000000
H    -0.036000000     3.282000000     2.011000000
C    -1.043000000     2.187000000     0.479000000
C    -2.153000000     3.227000000     0.245000000
O    -2.055000000     4.284000000     0.890000000
O    -3.024000000     3.050000000    -0.555000000
