14
-80.17112
C    -0.806000000    -2.085000000    -1.104000000
H    -0.556000000    -3.040000000    -1.558000000
C     0.180000000    -1.168000000    -0.703000000
H     1.259000000    -1.293000000    -0.743000000
C    -0.181000000     0.101000000    -0.213000000
H     0.457000000     0.811000000     0.280000000
C    -1.498000000     0.411000000    -0.087000000
H    -1.721000000     1.408000000     0.284000000
C    -2.473000000    -0.441000000    -0.568000000
H    -3.529000000    -0.205000000    -0.472000000
C    -2.165000000    -1.762000000    -0.930000000
C    -3.263000000    -2.766000000    -1.305000000
O    -4.438000000    -2.484000000    -1.062000000
O    -3.052000000    -3.966000000    -1.445000000
