14
-85.93110
C    -1.505000000     1.565000000    -0.374000000
H    -2.506000000     1.707000000    -0.774000000
C    -0.852000000     0.342000000    -0.401000000
H    -1.394000000    -0.505000000    -0.816000000
C     0.434000000     0.305000000     0.152000000
H     0.907000000    -0.671000000     0.102000000
C     1.071000000     1.397000000     0.747000000
H     2.081000000     1.327000000     1.144000000
C     0.507000000     2.643000000     0.571000000
H     0.955000000     3.522000000     1.026000000
C    -0.816000000     2.679000000     0.073000000
C    -1.603000000     3.939000000     0.223000000
O    -1.283000000     4.890000000     0.903000000
O    -2.562000000     4.014000000    -0.530000000
