14
-88.90069
C    -1.520000000    -1.290000000    -0.812000000
H    -1.667000000    -1.803000000    -1.759000000
C    -0.468000000    -0.367000000    -0.680000000
H     0.365000000    -0.199000000    -1.358000000
C    -0.309000000     0.254000000     0.598000000
H     0.632000000     0.849000000     0.827000000
C    -1.250000000     0.066000000     1.621000000
H    -1.186000000     0.596000000     2.568000000
C    -2.370000000    -0.788000000     1.373000000
H    -3.086000000    -1.074000000     2.139000000
C    -2.453000000    -1.531000000     0.228000000
C    -3.612000000    -2.525000000     0.123000000
O    -4.523000000    -2.481000000     1.004000000
O    -3.494000000    -3.451000000    -0.638000000
