14
-84.90427
C    -2.299000000    -2.272000000    -0.574000000
H    -2.105000000    -3.147000000    -1.189000000
C    -1.309000000    -1.316000000    -0.540000000
H    -0.412000000    -1.374000000    -1.152000000
C    -1.320000000    -0.305000000     0.363000000
H    -0.439000000     0.411000000     0.379000000
C    -2.371000000    -0.281000000     1.240000000
H    -2.358000000     0.508000000     1.988000000
C    -3.318000000    -1.275000000     1.354000000
H    -4.143000000    -1.172000000     2.055000000
C    -3.320000000    -2.281000000     0.375000000
C    -4.264000000    -3.422000000     0.466000000
O    -5.052000000    -3.572000000     1.392000000
O    -4.202000000    -4.307000000    -0.397000000
