14
-74.40454
C    -0.603000000    -1.592000000    -0.573000000
H    -0.166000000    -2.500000000    -0.982000000
C     0.123000000    -0.439000000    -0.577000000
H     1.117000000    -0.376000000    -1.013000000
C    -0.457000000     0.643000000     0.112000000
H     0.004000000     1.659000000     0.064000000
C    -1.605000000     0.500000000     0.869000000
H    -1.874000000     1.355000000     1.483000000
C    -2.338000000    -0.680000000     0.907000000
H    -3.235000000    -0.769000000     1.514000000
C    -1.852000000    -1.781000000     0.159000000
C    -2.498000000    -3.136000000     0.231000000
O    -3.496000000    -3.380000000     0.925000000
O    -1.840000000    -4.143000000     0.073000000
