14
-90.63751
C    -1.176000000    -1.814000000    -0.591000000
H    -0.981000000    -2.571000000    -1.346000000
C    -0.274000000    -0.792000000    -0.470000000
H     0.564000000    -0.796000000    -1.161000000
C    -0.467000000     0.184000000     0.545000000
H     0.329000000     0.940000000     0.746000000
C    -1.588000000     0.160000000     1.285000000
H    -1.646000000     0.891000000     2.087000000
C    -2.586000000    -0.761000000     1.085000000
H    -3.487000000    -0.631000000     1.679000000
C    -2.372000000    -1.792000000     0.169000000
C    -3.388000000    -2.905000000     0.017000000
O    -4.470000000    -2.836000000     0.590000000
O    -3.099000000    -3.862000000    -0.686000000
