14
-88.79325
C    -0.693000000    -2.456000000    -0.782000000
H    -0.587000000    -3.318000000    -1.435000000
C     0.345000000    -1.512000000    -0.795000000
H     1.281000000    -1.751000000    -1.295000000
C     0.135000000    -0.264000000    -0.146000000
H     0.972000000     0.438000000    -0.222000000
C    -0.981000000     0.017000000     0.646000000
H    -1.097000000     0.988000000     1.121000000
C    -1.994000000    -0.946000000     0.633000000
H    -2.878000000    -0.570000000     1.142000000
C    -1.922000000    -2.171000000    -0.090000000
C    -3.061000000    -3.123000000    -0.178000000
O    -4.178000000    -2.656000000    -0.053000000
O    -2.844000000    -4.303000000    -0.388000000
