14
-83.06120
C    -2.772000000    -1.843000000    -0.203000000
H    -3.292000000    -2.667000000    -0.684000000
C    -1.908000000    -1.109000000    -0.962000000
H    -1.833000000    -1.256000000    -2.037000000
C    -1.229000000    -0.041000000    -0.388000000
H    -0.607000000     0.554000000    -1.050000000
C    -1.172000000     0.108000000     1.005000000
H    -0.691000000     0.977000000     1.445000000
C    -1.968000000    -0.756000000     1.751000000
H    -1.880000000    -0.674000000     2.832000000
C    -2.840000000    -1.673000000     1.160000000
C    -3.619000000    -2.612000000     1.962000000
O    -4.019000000    -2.200000000     3.040000000
O    -3.957000000    -3.657000000     1.521000000
