14
-83.52745
C    -1.077000000    -2.660000000    -0.311000000
H    -1.314000000    -3.714000000    -0.438000000
C     0.159000000    -2.162000000    -0.640000000
H     1.002000000    -2.784000000    -0.929000000
C     0.443000000    -0.834000000    -0.595000000
H     1.392000000    -0.452000000    -0.917000000
C    -0.463000000     0.116000000    -0.271000000
H    -0.186000000     1.167000000    -0.257000000
C    -1.714000000    -0.347000000     0.065000000
H    -2.477000000     0.363000000     0.375000000
C    -2.075000000    -1.740000000     0.023000000
C    -3.525000000    -2.143000000     0.210000000
O    -4.371000000    -1.289000000     0.392000000
O    -3.721000000    -3.292000000     0.099000000
