14
-72.82201
C    -1.078000000    -2.532000000    -0.714000000
H    -1.026000000    -3.576000000    -1.012000000
C     0.055000000    -1.752000000    -0.861000000
H     0.958000000    -2.165000000    -1.304000000
C     0.007000000    -0.423000000    -0.479000000
H     0.829000000     0.293000000    -0.626000000
C    -1.067000000     0.097000000     0.205000000
H    -1.084000000     1.128000000     0.547000000
C    -2.204000000    -0.705000000     0.347000000
H    -3.113000000    -0.331000000     0.812000000
C    -2.213000000    -1.998000000    -0.107000000
C    -3.441000000    -2.729000000     0.206000000
O    -4.101000000    -2.382000000     1.154000000
O    -3.583000000    -3.814000000    -0.182000000
