14
-79.12117
C     0.279000000    -2.528000000     0.651000000
H     0.577000000    -3.564000000     0.791000000
C     1.045000000    -1.699000000    -0.270000000
H     1.987000000    -2.024000000    -0.705000000
C     0.728000000    -0.361000000    -0.336000000
H     1.245000000     0.199000000    -1.014000000
C    -0.443000000     0.107000000     0.241000000
H    -0.715000000     1.157000000     0.168000000
C    -1.278000000    -0.713000000     0.943000000
H    -2.279000000    -0.453000000     1.279000000
C    -0.891000000    -2.053000000     1.204000000
C    -1.748000000    -2.937000000     2.104000000
O    -2.853000000    -2.647000000     2.431000000
O    -1.362000000    -4.024000000     2.464000000
