14
-85.91669
C    -0.034000000    -2.302000000     0.192000000
H     0.190000000    -3.333000000    -0.073000000
C     0.601000000    -1.279000000    -0.525000000
H     1.441000000    -1.411000000    -1.202000000
C     0.221000000     0.069000000    -0.390000000
H     0.817000000     0.864000000    -0.899000000
C    -0.811000000     0.352000000     0.531000000
H    -1.028000000     1.363000000     0.865000000
C    -1.359000000    -0.676000000     1.382000000
H    -2.016000000    -0.320000000     2.172000000
C    -1.011000000    -2.015000000     1.183000000
C    -1.790000000    -3.123000000     1.744000000
O    -2.752000000    -2.854000000     2.477000000
O    -1.609000000    -4.320000000     1.438000000
