14
-80.26149
C    -1.543000000     1.459000000    -0.435000000
H    -2.451000000     1.476000000    -1.032000000
C    -0.927000000     0.249000000    -0.352000000
H    -1.394000000    -0.579000000    -0.879000000
C     0.338000000     0.115000000     0.303000000
H     0.701000000    -0.816000000     0.389000000
C     0.865000000     1.234000000     0.894000000
H     1.738000000     1.097000000     1.528000000
C     0.243000000     2.434000000     0.872000000
H     0.704000000     3.239000000     1.438000000
C    -0.992000000     2.590000000     0.140000000
C    -1.784000000     3.907000000     0.005000000
O    -1.509000000     4.808000000     0.743000000
O    -2.639000000     4.146000000    -0.867000000
