14
-84.90663
C     0.280000000    -3.607000000     0.479000000
H     0.631000000    -4.635000000     0.439000000
C     0.915000000    -2.627000000    -0.269000000
H     1.695000000    -2.930000000    -0.962000000
C     0.477000000    -1.314000000    -0.172000000
H     0.815000000    -0.486000000    -0.816000000
C    -0.512000000    -0.967000000     0.661000000
H    -0.988000000     0.005000000     0.559000000
C    -1.126000000    -1.867000000     1.441000000
H    -1.990000000    -1.583000000     2.036000000
C    -0.733000000    -3.218000000     1.381000000
C    -1.427000000    -4.324000000     2.224000000
O    -2.189000000    -4.025000000     3.177000000
O    -1.099000000    -5.469000000     2.067000000
