14
-77.84603
C    -0.513000000    -2.700000000     0.012000000
H    -0.553000000    -3.679000000    -0.459000000
C     0.306000000    -1.687000000    -0.402000000
H     1.073000000    -1.871000000    -1.149000000
C     0.211000000    -0.368000000     0.134000000
H     0.929000000     0.417000000    -0.180000000
C    -0.703000000    -0.070000000     1.073000000
H    -0.844000000     0.962000000     1.382000000
C    -1.626000000    -1.100000000     1.420000000
H    -2.298000000    -0.796000000     2.219000000
C    -1.505000000    -2.420000000     0.959000000
C    -2.573000000    -3.412000000     1.257000000
O    -3.083000000    -3.499000000     2.341000000
O    -2.882000000    -4.336000000     0.512000000
