14
-89.09875
C    -1.330000000    -2.162000000    -1.173000000
H    -1.573000000    -3.058000000    -1.738000000
C    -0.080000000    -1.559000000    -1.353000000
H     0.515000000    -1.920000000    -2.188000000
C     0.316000000    -0.473000000    -0.597000000
H     1.299000000    -0.225000000    -0.790000000
C    -0.522000000     0.098000000     0.419000000
H    -0.189000000     0.892000000     1.082000000
C    -1.790000000    -0.510000000     0.582000000
H    -2.434000000    -0.063000000     1.334000000
C    -2.210000000    -1.664000000    -0.170000000
C    -3.530000000    -2.320000000     0.141000000
O    -4.150000000    -2.043000000     1.165000000
O    -3.928000000    -3.170000000    -0.638000000
