14
-76.57009
C    -1.352000000     1.159000000    -0.800000000
H    -2.306000000     1.187000000    -1.319000000
C    -0.733000000    -0.091000000    -0.469000000
H    -1.292000000    -0.948000000    -0.835000000
C     0.476000000    -0.266000000     0.179000000
H     0.906000000    -1.195000000     0.411000000
C     1.132000000     0.949000000     0.566000000
H     2.120000000     0.906000000     1.016000000
C     0.419000000     2.236000000     0.466000000
H     0.867000000     3.148000000     0.853000000
C    -0.839000000     2.304000000    -0.174000000
C    -1.737000000     3.538000000    -0.286000000
O    -1.431000000     4.579000000     0.333000000
O    -2.745000000     3.647000000    -0.914000000
