14
-82.24458
C    -1.472000000    -1.980000000     0.582000000
H    -1.834000000    -2.981000000     0.358000000
C    -0.446000000    -1.470000000    -0.245000000
H     0.014000000    -1.970000000    -1.093000000
C    -0.020000000    -0.182000000     0.073000000
H     0.665000000     0.392000000    -0.601000000
C    -0.632000000     0.652000000     1.029000000
H    -0.406000000     1.714000000     1.064000000
C    -1.689000000     0.114000000     1.793000000
H    -2.207000000     0.628000000     2.599000000
C    -2.072000000    -1.198000000     1.576000000
C    -3.259000000    -1.754000000     2.327000000
O    -4.184000000    -1.076000000     2.677000000
O    -3.436000000    -2.959000000     2.357000000
