14
-83.64861
C    -0.965000000    -2.567000000    -0.091000000
H    -1.045000000    -3.630000000    -0.306000000
C    -0.058000000    -1.671000000    -0.679000000
H     0.569000000    -2.035000000    -1.489000000
C     0.086000000    -0.422000000    -0.252000000
H     0.846000000     0.201000000    -0.668000000
C    -0.662000000     0.097000000     0.837000000
H    -0.442000000     1.107000000     1.175000000
C    -1.513000000    -0.788000000     1.534000000
H    -2.207000000    -0.389000000     2.269000000
C    -1.693000000    -2.103000000     0.995000000
C    -2.582000000    -3.072000000     1.727000000
O    -3.223000000    -2.630000000     2.686000000
O    -2.962000000    -4.049000000     1.103000000
