14
-87.80467
C    -2.382000000    -1.849000000    -1.234000000
H    -2.590000000    -2.693000000    -1.886000000
C    -1.126000000    -1.293000000    -1.261000000
H    -0.467000000    -1.760000000    -1.988000000
C    -0.808000000    -0.207000000    -0.457000000
H     0.104000000     0.355000000    -0.588000000
C    -1.829000000     0.366000000     0.336000000
H    -1.557000000     1.303000000     0.816000000
C    -3.120000000    -0.199000000     0.381000000
H    -3.839000000     0.320000000     1.010000000
C    -3.399000000    -1.302000000    -0.356000000
C    -4.797000000    -1.984000000    -0.309000000
O    -5.576000000    -1.513000000     0.443000000
O    -5.018000000    -2.985000000    -0.982000000
