14
-87.27231
C    -2.412000000    -2.540000000     0.350000000
H    -2.404000000    -3.610000000     0.543000000
C    -1.591000000    -1.927000000    -0.569000000
H    -0.870000000    -2.484000000    -1.162000000
C    -1.775000000    -0.596000000    -0.779000000
H    -1.233000000    -0.155000000    -1.600000000
C    -2.754000000     0.130000000    -0.168000000
H    -2.991000000     1.178000000    -0.335000000
C    -3.508000000    -0.473000000     0.848000000
H    -4.178000000     0.140000000     1.445000000
C    -3.350000000    -1.819000000     1.103000000
C    -4.103000000    -2.545000000     2.246000000
O    -5.019000000    -1.932000000     2.893000000
O    -4.080000000    -3.774000000     2.335000000
