14
-89.05614
C    -1.372000000    -1.854000000    -0.676000000
H    -1.436000000    -2.738000000    -1.306000000
C    -0.248000000    -1.069000000    -0.701000000
H     0.539000000    -1.402000000    -1.373000000
C    -0.121000000     0.066000000     0.054000000
H     0.697000000     0.674000000    -0.051000000
C    -1.163000000     0.425000000     0.824000000
H    -1.178000000     1.337000000     1.417000000
C    -2.272000000    -0.414000000     1.031000000
H    -2.979000000    -0.229000000     1.836000000
C    -2.465000000    -1.533000000     0.165000000
C    -3.767000000    -2.336000000     0.197000000
O    -4.620000000    -1.947000000     0.999000000
O    -3.992000000    -3.279000000    -0.572000000
