14
-88.57167
C    -1.874000000    -1.452000000    -0.438000000
H    -2.294000000    -2.321000000    -0.936000000
C    -0.606000000    -0.995000000    -0.813000000
H    -0.028000000    -1.455000000    -1.610000000
C    -0.065000000     0.147000000    -0.176000000
H     0.962000000     0.460000000    -0.517000000
C    -0.768000000     0.703000000     0.866000000
H    -0.310000000     1.531000000     1.401000000
C    -2.045000000     0.203000000     1.241000000
H    -2.644000000     0.671000000     2.019000000
C    -2.688000000    -0.882000000     0.612000000
C    -4.091000000    -1.424000000     0.951000000
O    -4.749000000    -0.910000000     1.842000000
O    -4.616000000    -2.352000000     0.317000000
