14
-81.07808
C    -2.129000000    -2.107000000    -0.412000000
H    -2.474000000    -2.939000000    -1.021000000
C    -0.872000000    -1.514000000    -0.576000000
H    -0.288000000    -1.872000000    -1.420000000
C    -0.428000000    -0.421000000     0.090000000
H     0.725000000    -0.248000000     0.051000000
C    -1.356000000     0.159000000     1.021000000
H    -1.006000000     1.068000000     1.504000000
C    -2.573000000    -0.454000000     1.291000000
H    -3.195000000    -0.082000000     2.102000000
C    -2.966000000    -1.621000000     0.614000000
C    -4.226000000    -2.315000000     1.040000000
O    -4.851000000    -1.824000000     1.931000000
O    -4.635000000    -3.308000000     0.487000000
