14
-92.11376
C    -1.632000000    -1.370000000    -0.739000000
H    -2.009000000    -2.097000000    -1.453000000
C    -0.295000000    -0.961000000    -0.654000000
H     0.389000000    -1.478000000    -1.322000000
C     0.180000000     0.031000000     0.244000000
H     1.214000000     0.319000000     0.207000000
C    -0.763000000     0.670000000     1.052000000
H    -0.524000000     1.456000000     1.763000000
C    -2.112000000     0.347000000     0.892000000
H    -2.744000000     0.784000000     1.661000000
C    -2.577000000    -0.605000000    -0.015000000
C    -4.053000000    -0.961000000    -0.070000000
O    -4.849000000    -0.322000000     0.631000000
O    -4.444000000    -1.761000000    -0.924000000
