14
-85.85344
C    -2.300000000    -1.518000000    -0.484000000
H    -2.752000000    -2.278000000    -1.116000000
C    -0.976000000    -1.202000000    -0.745000000
H    -0.463000000    -1.654000000    -1.590000000
C    -0.271000000    -0.375000000     0.070000000
H     0.679000000     0.001000000    -0.273000000
C    -0.849000000     0.250000000     1.172000000
H    -0.357000000     0.976000000     1.814000000
C    -2.234000000     0.013000000     1.373000000
H    -2.718000000     0.565000000     2.174000000
C    -2.923000000    -0.981000000     0.621000000
C    -4.353000000    -1.344000000     1.055000000
O    -4.908000000    -0.564000000     1.844000000
O    -5.080000000    -2.165000000     0.490000000
