14
-83.51957
C    -2.741000000    -1.362000000     0.273000000
H    -3.534000000    -2.060000000     0.019000000
C    -1.481000000    -1.526000000    -0.297000000
H    -1.254000000    -2.420000000    -0.872000000
C    -0.440000000    -0.717000000     0.113000000
H     0.589000000    -0.867000000    -0.299000000
C    -0.716000000     0.420000000     0.973000000
H     0.078000000     1.076000000     1.319000000
C    -1.950000000     0.624000000     1.467000000
H    -2.074000000     1.449000000     2.163000000
C    -2.953000000    -0.279000000     1.149000000
C    -4.303000000    -0.063000000     1.676000000
O    -4.705000000     1.022000000     1.901000000
O    -5.012000000    -1.064000000     1.857000000
