14
-87.04052
C    -2.009000000    -0.442000000    -1.124000000
H    -2.818000000    -0.718000000    -1.796000000
C    -0.660000000    -0.686000000    -1.361000000
H    -0.387000000    -1.246000000    -2.252000000
C     0.244000000    -0.317000000    -0.462000000
H     1.291000000    -0.643000000    -0.608000000
C    -0.113000000     0.290000000     0.742000000
H     0.632000000     0.643000000     1.451000000
C    -1.408000000     0.632000000     1.003000000
H    -1.691000000     1.062000000     1.960000000
C    -2.367000000     0.108000000     0.121000000
C    -3.867000000     0.273000000     0.428000000
O    -4.198000000     0.964000000     1.354000000
O    -4.691000000    -0.186000000    -0.364000000
