14
-82.58297
C    -2.675000000    -1.505000000    -0.439000000
H    -3.438000000    -1.999000000    -1.034000000
C    -1.380000000    -1.170000000    -0.973000000
H    -1.206000000    -1.454000000    -2.008000000
C    -0.542000000    -0.296000000    -0.291000000
H     0.360000000     0.159000000    -0.678000000
C    -0.894000000     0.041000000     0.958000000
H    -0.169000000     0.630000000     1.514000000
C    -2.141000000    -0.223000000     1.472000000
H    -2.418000000     0.115000000     2.467000000
C    -3.069000000    -0.939000000     0.745000000
C    -4.402000000    -1.267000000     1.316000000
O    -4.715000000    -0.853000000     2.400000000
O    -5.263000000    -1.915000000     0.672000000
