14
-79.18335
C    -2.922000000    -1.012000000    -0.170000000
H    -3.396000000    -1.921000000    -0.531000000
C    -1.540000000    -0.861000000    -0.404000000
H    -0.951000000    -1.560000000    -0.992000000
C    -0.784000000     0.181000000     0.201000000
H     0.324000000     0.218000000     0.203000000
C    -1.501000000     1.017000000     1.113000000
H    -1.052000000     1.806000000     1.710000000
C    -2.887000000     0.953000000     1.281000000
H    -3.442000000     1.601000000     1.955000000
C    -3.613000000    -0.092000000     0.640000000
C    -5.077000000    -0.371000000     0.871000000
O    -5.791000000     0.419000000     1.430000000
O    -5.606000000    -1.246000000     0.265000000
