14
-81.74593
C    -1.829000000     0.179000000    -0.911000000
H    -2.361000000    -0.327000000    -1.712000000
C    -0.598000000    -0.303000000    -0.563000000
H    -0.172000000    -1.108000000    -1.156000000
C     0.128000000     0.307000000     0.425000000
H     1.146000000    -0.062000000     0.536000000
C    -0.412000000     1.341000000     1.194000000
H     0.182000000     1.797000000     1.982000000
C    -1.729000000     1.818000000     0.935000000
H    -2.163000000     2.581000000     1.577000000
C    -2.414000000     1.272000000    -0.197000000
C    -3.750000000     1.890000000    -0.569000000
O    -4.272000000     2.625000000     0.210000000
O    -4.397000000     1.396000000    -1.442000000
