14
-83.78462
C    -2.101000000     1.844000000     0.107000000
H    -2.867000000     2.568000000    -0.160000000
C    -1.292000000     1.398000000    -0.927000000
H    -1.442000000     1.880000000    -1.889000000
C    -0.318000000     0.452000000    -0.673000000
H     0.364000000     0.035000000    -1.379000000
C    -0.200000000    -0.125000000     0.599000000
H     0.565000000    -0.864000000     0.825000000
C    -0.950000000     0.334000000     1.667000000
H    -0.866000000    -0.161000000     2.631000000
C    -2.022000000     1.283000000     1.440000000
C    -2.897000000     1.797000000     2.581000000
O    -3.221000000     1.104000000     3.525000000
O    -3.470000000     2.837000000     2.397000000
