14
-77.44199
C    -2.010000000     1.160000000     0.229000000
H    -2.571000000     2.034000000    -0.090000000
C    -0.642000000     0.945000000    -0.057000000
H    -0.081000000     1.614000000    -0.703000000
C     0.053000000    -0.130000000     0.678000000
H     1.104000000    -0.335000000     0.390000000
C    -0.634000000    -0.835000000     1.673000000
H    -0.085000000    -1.561000000     2.267000000
C    -2.012000000    -0.587000000     1.902000000
H    -2.697000000    -1.173000000     2.510000000
C    -2.693000000     0.391000000     1.200000000
C    -4.147000000     0.770000000     1.398000000
O    -4.688000000     0.448000000     2.389000000
O    -4.710000000     1.560000000     0.674000000
