14
-86.34294
C    -2.938000000     0.424000000    -0.353000000
H    -3.711000000     0.937000000    -0.920000000
C    -1.703000000     0.107000000    -0.892000000
H    -1.487000000     0.440000000    -1.904000000
C    -0.690000000    -0.490000000    -0.149000000
H     0.294000000    -0.819000000    -0.529000000
C    -0.988000000    -0.828000000     1.179000000
H    -0.294000000    -1.445000000     1.744000000
C    -2.193000000    -0.576000000     1.754000000
H    -2.344000000    -0.924000000     2.772000000
C    -3.206000000     0.111000000     0.974000000
C    -4.499000000     0.544000000     1.612000000
O    -4.777000000     0.295000000     2.735000000
O    -5.295000000     1.224000000     0.944000000
