14
-86.33189
C    -3.124000000     1.062000000    -0.874000000
H    -3.845000000     1.745000000    -1.317000000
C    -1.740000000     1.295000000    -0.927000000
H    -1.261000000     2.195000000    -1.304000000
C    -0.893000000     0.308000000    -0.455000000
H     0.128000000     0.502000000    -0.525000000
C    -1.403000000    -0.891000000     0.055000000
H    -0.687000000    -1.612000000     0.441000000
C    -2.780000000    -1.112000000     0.097000000
H    -3.146000000    -2.008000000     0.591000000
C    -3.640000000    -0.114000000    -0.346000000
C    -5.107000000    -0.171000000    -0.032000000
O    -5.562000000    -1.237000000     0.373000000
O    -5.859000000     0.696000000    -0.342000000
