14
-85.47757
C    -3.076000000     1.390000000    -0.932000000
H    -3.833000000     2.169000000    -0.980000000
C    -1.779000000     1.798000000    -0.923000000
H    -1.526000000     2.849000000    -1.038000000
C    -0.739000000     0.834000000    -0.799000000
H     0.319000000     1.044000000    -1.082000000
C    -1.025000000    -0.521000000    -0.590000000
H    -0.198000000    -1.169000000    -0.311000000
C    -2.401000000    -0.946000000    -0.538000000
H    -2.673000000    -1.947000000    -0.213000000
C    -3.426000000     0.023000000    -0.709000000
C    -4.871000000    -0.440000000    -0.482000000
O    -5.086000000    -1.540000000     0.003000000
O    -5.812000000     0.300000000    -0.663000000
