14
-85.46469
C    -3.078000000     0.900000000    -0.606000000
H    -3.737000000     1.514000000    -1.214000000
C    -1.758000000     1.254000000    -0.615000000
H    -1.297000000     2.143000000    -1.037000000
C    -0.894000000     0.433000000     0.031000000
H     0.143000000     0.702000000     0.030000000
C    -1.291000000    -0.720000000     0.693000000
H    -0.550000000    -1.320000000     1.216000000
C    -2.590000000    -1.106000000     0.577000000
H    -2.972000000    -2.030000000     1.004000000
C    -3.533000000    -0.318000000    -0.158000000
C    -4.940000000    -0.818000000    -0.396000000
O    -5.239000000    -1.896000000     0.128000000
O    -5.849000000    -0.041000000    -0.763000000
