14
-85.46609
C    -1.643000000     0.568000000    -0.379000000
H    -2.045000000     1.275000000    -1.100000000
C    -0.270000000     0.216000000    -0.627000000
H     0.118000000     0.587000000    -1.572000000
C     0.451000000    -0.475000000     0.354000000
H     1.492000000    -0.883000000     0.186000000
C    -0.218000000    -1.029000000     1.460000000
H     0.299000000    -1.761000000     2.075000000
C    -1.569000000    -0.729000000     1.677000000
H    -2.033000000    -1.151000000     2.565000000
C    -2.326000000     0.013000000     0.722000000
C    -3.706000000     0.565000000     1.026000000
O    -4.403000000     0.061000000     1.944000000
O    -4.139000000     1.424000000     0.321000000
