14
-79.99965
C    -1.456000000     0.307000000    -0.752000000
H    -2.042000000     0.958000000    -1.395000000
C    -0.084000000     0.231000000    -0.770000000
H     0.521000000     0.692000000    -1.547000000
C     0.586000000    -0.513000000     0.276000000
H     1.633000000    -0.591000000     0.352000000
C    -0.185000000    -1.033000000     1.288000000
H     0.324000000    -1.562000000     2.090000000
C    -1.564000000    -0.946000000     1.296000000
H    -2.082000000    -1.439000000     2.115000000
C    -2.220000000    -0.310000000     0.261000000
C    -3.687000000    -0.516000000     0.174000000
O    -4.237000000    -1.197000000     1.056000000
O    -4.338000000     0.265000000    -0.428000000
