14
-87.73794
C    -2.204000000     1.051000000    -0.212000000
H    -2.766000000     1.488000000    -1.033000000
C    -0.837000000     0.697000000    -0.334000000
H    -0.246000000     0.969000000    -1.205000000
C    -0.243000000    -0.061000000     0.629000000
H     0.812000000    -0.278000000     0.555000000
C    -0.969000000    -0.553000000     1.722000000
H    -0.401000000    -1.205000000     2.381000000
C    -2.264000000    -0.092000000     1.939000000
H    -2.685000000    -0.444000000     2.877000000
C    -2.952000000     0.600000000     0.902000000
C    -4.469000000     0.791000000     0.957000000
O    -5.152000000     0.118000000     1.687000000
O    -5.010000000     1.491000000     0.075000000
