14
-83.25913
C    -2.370000000    -0.629000000     0.933000000
H    -3.153000000    -1.353000000     0.723000000
C    -1.269000000    -0.683000000     0.123000000
H    -1.121000000    -1.481000000    -0.600000000
C    -0.248000000     0.270000000     0.263000000
H     0.624000000     0.165000000    -0.390000000
C    -0.298000000     1.241000000     1.251000000
H     0.536000000     1.931000000     1.354000000
C    -1.422000000     1.233000000     2.079000000
H    -1.391000000     1.925000000     2.917000000
C    -2.463000000     0.383000000     1.863000000
C    -3.664000000     0.288000000     2.861000000
O    -3.958000000     1.170000000     3.671000000
O    -4.523000000    -0.588000000     2.780000000
