14
-80.80746
C    -3.332000000    -0.392000000     0.298000000
H    -4.307000000    -0.543000000    -0.160000000
C    -2.215000000    -0.055000000    -0.513000000
H    -2.309000000     0.014000000    -1.594000000
C    -0.993000000     0.114000000     0.050000000
H    -0.080000000     0.349000000    -0.552000000
C    -0.887000000     0.143000000     1.408000000
H     0.111000000     0.391000000     1.758000000
C    -2.025000000    -0.046000000     2.270000000
H    -1.847000000     0.026000000     3.340000000
C    -3.275000000    -0.336000000     1.673000000
C    -4.559000000    -0.445000000     2.464000000
O    -4.535000000    -0.559000000     3.629000000
O    -5.621000000    -0.622000000     1.869000000
