14
-87.26301
C    -3.036000000    -1.137000000    -0.042000000
H    -3.891000000    -1.638000000    -0.489000000
C    -1.810000000    -0.971000000    -0.789000000
H    -1.753000000    -1.418000000    -1.778000000
C    -0.751000000    -0.355000000    -0.069000000
H     0.228000000    -0.290000000    -0.562000000
C    -0.915000000     0.118000000     1.187000000
H    -0.105000000     0.652000000     1.678000000
C    -2.099000000    -0.010000000     1.859000000
H    -2.184000000     0.437000000     2.846000000
C    -3.182000000    -0.693000000     1.285000000
C    -4.456000000    -0.936000000     2.077000000
O    -4.585000000    -0.504000000     3.200000000
O    -5.394000000    -1.411000000     1.493000000
