14
-85.44791
C    -2.889000000    -0.107000000    -0.104000000
H    -3.937000000    -0.391000000    -0.167000000
C    -1.936000000    -0.830000000    -0.816000000
H    -2.345000000    -1.565000000    -1.505000000
C    -0.585000000    -0.585000000    -0.622000000
H     0.209000000    -1.075000000    -1.141000000
C    -0.224000000     0.387000000     0.319000000
H     0.835000000     0.588000000     0.461000000
C    -1.173000000     1.209000000     0.936000000
H    -0.879000000     2.064000000     1.540000000
C    -2.544000000     1.054000000     0.653000000
C    -3.695000000     1.888000000     1.247000000
O    -3.456000000     2.690000000     2.106000000
O    -4.843000000     1.799000000     0.873000000
