14
-89.77336
C    -0.258000000     0.826000000    -1.506000000
H    -0.210000000     0.400000000    -2.505000000
C    -0.147000000    -0.018000000    -0.441000000
H     0.012000000    -1.088000000    -0.551000000
C    -0.281000000     0.428000000     0.840000000
H    -0.227000000    -0.300000000     1.675000000
C    -0.426000000     1.786000000     1.028000000
H    -0.361000000     2.175000000     2.041000000
C    -0.499000000     2.681000000    -0.021000000
H    -0.584000000     3.752000000     0.144000000
C    -0.445000000     2.170000000    -1.343000000
C    -0.610000000     3.106000000    -2.522000000
O    -1.154000000     4.167000000    -2.287000000
O     0.034000000     2.858000000    -3.521000000
