14
-83.19562
C    -1.621000000     2.912000000    -0.021000000
H    -1.955000000     3.793000000    -0.563000000
C    -1.307000000     1.839000000    -0.767000000
H    -1.509000000     1.849000000    -1.835000000
C    -0.843000000     0.648000000    -0.077000000
H    -0.661000000    -0.260000000    -0.561000000
C    -0.558000000     0.713000000     1.274000000
H    -0.137000000    -0.148000000     1.787000000
C    -0.798000000     1.868000000     1.978000000
H    -0.723000000     1.908000000     3.062000000
C    -1.385000000     3.000000000     1.351000000
C    -1.990000000     4.121000000     2.187000000
O    -1.604000000     4.208000000     3.366000000
O    -3.122000000     4.529000000     1.893000000
