14
-91.45373
C    -2.747000000     0.927000000    -0.343000000
H    -3.690000000     0.643000000    -0.804000000
C    -1.757000000     0.000000000    -0.393000000
H    -1.951000000    -0.966000000    -0.853000000
C    -0.603000000     0.273000000     0.301000000
H     0.175000000    -0.478000000     0.344000000
C    -0.459000000     1.397000000     1.088000000
H     0.346000000     1.425000000     1.818000000
C    -1.464000000     2.374000000     1.119000000
H    -1.329000000     3.247000000     1.753000000
C    -2.674000000     2.118000000     0.388000000
C    -3.868000000     3.054000000     0.522000000
O    -3.821000000     4.076000000     1.230000000
O    -4.902000000     2.741000000    -0.113000000
