14
-79.09234
C    -2.449000000     0.620000000    -0.251000000
H    -3.499000000     0.598000000    -0.533000000
C    -1.589000000    -0.412000000    -0.586000000
H    -1.991000000    -1.364000000    -0.926000000
C    -0.250000000    -0.293000000    -0.327000000
H     0.492000000    -1.123000000    -0.535000000
C     0.278000000     0.898000000     0.202000000
H     1.357000000     1.010000000     0.266000000
C    -0.630000000     1.958000000     0.528000000
H    -0.252000000     2.911000000     0.889000000
C    -1.955000000     1.772000000     0.324000000
C    -2.914000000     2.945000000     0.551000000
O    -2.514000000     3.970000000     1.076000000
O    -4.113000000     2.916000000     0.468000000
