14
-88.51398
C    -0.381000000     0.984000000    -1.594000000
H    -0.248000000     0.675000000    -2.627000000
C    -0.133000000     0.127000000    -0.543000000
H     0.347000000    -0.843000000    -0.644000000
C    -0.527000000     0.545000000     0.711000000
H    -0.207000000    -0.057000000     1.539000000
C    -1.263000000     1.685000000     0.973000000
H    -1.570000000     1.973000000     1.976000000
C    -1.541000000     2.504000000    -0.104000000
H    -2.052000000     3.452000000     0.042000000
C    -1.076000000     2.166000000    -1.407000000
C    -1.332000000     3.196000000    -2.532000000
O    -1.947000000     4.258000000    -2.369000000
O    -0.730000000     3.056000000    -3.589000000
