14
-84.82592
C    -1.402000000     2.422000000     2.145000000
H    -1.610000000     3.415000000     1.754000000
C    -0.521000000     1.590000000     1.430000000
H    -0.262000000     1.800000000     0.396000000
C    -0.277000000     0.309000000     1.934000000
H     0.366000000    -0.290000000     1.276000000
C    -0.937000000    -0.201000000     3.057000000
H    -0.751000000    -1.230000000     3.354000000
C    -1.759000000     0.723000000     3.774000000
H    -2.318000000     0.362000000     4.633000000
C    -1.996000000     2.067000000     3.335000000
C    -2.789000000     3.017000000     4.131000000
O    -3.353000000     2.609000000     5.165000000
O    -2.646000000     4.215000000     3.989000000
