14
-83.04412
C    -0.720000000     2.568000000     1.378000000
H    -0.799000000     3.592000000     1.020000000
C    -0.282000000     1.598000000     0.537000000
H    -0.076000000     1.762000000    -0.518000000
C    -0.159000000     0.281000000     0.965000000
H     0.097000000    -0.468000000     0.195000000
C    -0.542000000    -0.106000000     2.249000000
H    -0.451000000    -1.156000000     2.513000000
C    -1.136000000     0.827000000     3.032000000
H    -1.548000000     0.490000000     3.980000000
C    -1.267000000     2.206000000     2.621000000
C    -2.033000000     3.213000000     3.527000000
O    -2.680000000     2.761000000     4.421000000
O    -2.094000000     4.400000000     3.306000000
