14
-85.80446
C    -0.880000000     2.400000000     0.867000000
H    -1.326000000     3.337000000     0.545000000
C    -0.307000000     1.518000000    -0.018000000
H    -0.321000000     1.735000000    -1.083000000
C     0.137000000     0.291000000     0.417000000
H     0.458000000    -0.404000000    -0.345000000
C    -0.037000000    -0.094000000     1.762000000
H     0.247000000    -1.113000000     2.013000000
C    -0.559000000     0.792000000     2.662000000
H    -0.806000000     0.437000000     3.659000000
C    -1.060000000     2.062000000     2.239000000
C    -1.758000000     3.020000000     3.099000000
O    -2.071000000     2.724000000     4.255000000
O    -2.107000000     4.163000000     2.758000000
