14
-84.29930
C    -0.655000000     0.911000000    -1.491000000
H    -0.706000000     0.658000000    -2.547000000
C    -0.100000000    -0.032000000    -0.667000000
H     0.318000000    -0.890000000    -1.187000000
C    -0.045000000     0.249000000     0.678000000
H     0.320000000    -0.476000000     1.429000000
C    -0.563000000     1.435000000     1.199000000
H    -0.372000000     1.595000000     2.257000000
C    -1.113000000     2.414000000     0.330000000
H    -1.420000000     3.377000000     0.728000000
C    -1.122000000     2.139000000    -0.992000000
C    -1.835000000     3.055000000    -1.970000000
O    -2.285000000     4.071000000    -1.550000000
O    -1.892000000     2.809000000    -3.155000000
