14
-89.24562
C    -1.393000000     0.401000000     0.263000000
H    -2.209000000     0.821000000    -0.318000000
C    -0.117000000     0.090000000    -0.299000000
H     0.078000000     0.212000000    -1.362000000
C     0.905000000    -0.381000000     0.506000000
H     1.915000000    -0.638000000     0.099000000
C     0.756000000    -0.370000000     1.896000000
H     1.514000000    -0.804000000     2.543000000
C    -0.407000000     0.011000000     2.517000000
H    -0.477000000    -0.072000000     3.598000000
C    -1.516000000     0.370000000     1.672000000
C    -2.829000000     0.778000000     2.312000000
O    -2.843000000     0.996000000     3.536000000
O    -3.872000000     0.954000000     1.697000000
