14
-83.80221
C    -2.297000000     0.219000000     0.768000000
H    -3.332000000     0.320000000     0.449000000
C    -1.198000000     0.228000000    -0.173000000
H    -1.257000000     0.391000000    -1.246000000
C     0.061000000     0.106000000     0.343000000
H     0.881000000     0.097000000    -0.330000000
C     0.268000000     0.094000000     1.712000000
H     1.213000000    -0.208000000     2.157000000
C    -0.806000000     0.193000000     2.606000000
H    -0.681000000     0.067000000     3.679000000
C    -2.140000000     0.349000000     2.183000000
C    -3.233000000     0.482000000     3.192000000
O    -2.995000000     0.774000000     4.354000000
O    -4.396000000     0.607000000     2.734000000
