14
-90.15449
C    -2.013000000     2.445000000     0.095000000
H    -2.925000000     2.997000000    -0.115000000
C    -1.789000000     1.353000000    -0.752000000
H    -2.468000000     1.080000000    -1.555000000
C    -0.788000000     0.461000000    -0.545000000
H    -0.687000000    -0.442000000    -1.238000000
C     0.110000000     0.654000000     0.469000000
H     1.010000000     0.055000000     0.581000000
C    -0.030000000     1.796000000     1.319000000
H     0.638000000     1.967000000     2.159000000
C    -1.102000000     2.679000000     1.176000000
C    -1.331000000     3.803000000     2.113000000
O    -0.482000000     4.166000000     2.932000000
O    -2.438000000     4.355000000     2.027000000
