14
-78.04297
C    -0.687000000     2.112000000    -0.148000000
H    -1.273000000     3.001000000    -0.367000000
C    -0.805000000     1.062000000    -1.014000000
H    -1.497000000     1.185000000    -1.843000000
C    -0.242000000    -0.212000000    -0.781000000
H    -0.365000000    -0.976000000    -1.512000000
C     0.460000000    -0.454000000     0.401000000
H     0.910000000    -1.430000000     0.562000000
C     0.592000000     0.656000000     1.267000000
H     1.229000000     0.491000000     2.132000000
C    -0.071000000     1.887000000     1.038000000
C     0.120000000     2.988000000     2.069000000
O     0.565000000     2.787000000     3.156000000
O    -0.465000000     4.012000000     1.884000000
