14
-80.31807
C    -0.642000000     1.344000000    -2.654000000
H    -0.792000000     1.541000000    -3.713000000
C     0.020000000     0.215000000    -2.182000000
H     0.568000000    -0.432000000    -2.861000000
C     0.041000000    -0.026000000    -0.857000000
H     0.532000000    -0.892000000    -0.510000000
C    -0.555000000     0.869000000     0.048000000
H    -0.381000000     0.733000000     1.112000000
C    -1.226000000     1.926000000    -0.357000000
H    -1.680000000     2.646000000     0.318000000
C    -1.352000000     2.148000000    -1.780000000
C    -1.933000000     3.454000000    -2.242000000
O    -2.153000000     4.420000000    -1.560000000
O    -1.988000000     3.597000000    -3.450000000
