14
-84.15527
C    -0.494000000     2.441000000     0.344000000
H    -0.791000000     3.399000000    -0.075000000
C    -0.701000000     1.232000000    -0.361000000
H    -1.269000000     1.293000000    -1.286000000
C    -0.237000000     0.012000000     0.116000000
H    -0.296000000    -0.798000000    -0.554000000
C     0.494000000    -0.005000000     1.334000000
H     0.904000000    -0.925000000     1.742000000
C     0.707000000     1.208000000     2.010000000
H     1.310000000     1.221000000     2.915000000
C     0.196000000     2.427000000     1.538000000
C     0.519000000     3.699000000     2.231000000
O     1.048000000     3.821000000     3.286000000
O     0.224000000     4.761000000     1.676000000
