14
-90.19002
C    -1.221000000     1.825000000    -0.236000000
H    -1.848000000     2.467000000    -0.850000000
C    -0.639000000     0.703000000    -0.802000000
H    -0.762000000     0.500000000    -1.863000000
C     0.122000000    -0.174000000    -0.093000000
H     0.617000000    -1.031000000    -0.619000000
C     0.227000000     0.120000000     1.280000000
H     0.889000000    -0.492000000     1.887000000
C    -0.399000000     1.239000000     1.859000000
H    -0.262000000     1.456000000     2.915000000
C    -1.117000000     2.133000000     1.075000000
C    -1.700000000     3.424000000     1.641000000
O    -1.781000000     3.525000000     2.850000000
O    -2.159000000     4.233000000     0.867000000
