14
-85.04316
C    -1.248000000     1.806000000    -0.028000000
H    -1.832000000     2.690000000    -0.271000000
C    -0.983000000     0.843000000    -0.971000000
H    -1.437000000     0.920000000    -1.956000000
C    -0.223000000    -0.309000000    -0.769000000
H    -0.157000000    -1.072000000    -1.603000000
C     0.259000000    -0.524000000     0.517000000
H     0.844000000    -1.416000000     0.725000000
C    -0.030000000     0.445000000     1.524000000
H     0.182000000     0.304000000     2.581000000
C    -0.760000000     1.627000000     1.225000000
C    -0.936000000     2.697000000     2.322000000
O    -0.537000000     2.546000000     3.427000000
O    -1.655000000     3.668000000     2.083000000
