14
-90.98534
C    -0.779000000     1.363000000     1.566000000
H    -1.547000000     1.918000000     2.098000000
C    -1.050000000     0.568000000     0.426000000
H    -2.032000000     0.521000000    -0.039000000
C    -0.044000000    -0.161000000    -0.192000000
H    -0.119000000    -0.829000000    -1.092000000
C     1.203000000    -0.017000000     0.270000000
H     2.046000000    -0.507000000    -0.209000000
C     1.506000000     0.756000000     1.429000000
H     2.522000000     0.812000000     1.810000000
C     0.494000000     1.405000000     2.115000000
C     0.835000000     2.415000000     3.192000000
O     2.035000000     2.651000000     3.402000000
O    -0.087000000     2.964000000     3.784000000
