14
-89.09729
C    -0.512000000     0.655000000     2.780000000
H    -1.271000000     0.169000000     3.387000000
C    -0.629000000     0.559000000     1.397000000
H    -1.393000000    -0.050000000     0.920000000
C     0.280000000     1.260000000     0.595000000
H     0.154000000     1.217000000    -0.482000000
C     1.388000000     1.939000000     1.145000000
H     2.069000000     2.484000000     0.496000000
C     1.411000000     2.089000000     2.592000000
H     2.187000000     2.680000000     3.071000000
C     0.481000000     1.448000000     3.410000000
C     0.547000000     1.668000000     4.880000000
O     1.189000000     2.611000000     5.289000000
O    -0.183000000     1.048000000     5.630000000
