14
-77.25898
C    -0.801000000     1.469000000    -2.881000000
H    -0.939000000     1.864000000    -3.885000000
C    -0.188000000     0.235000000    -2.564000000
H     0.283000000    -0.344000000    -3.354000000
C    -0.170000000    -0.262000000    -1.249000000
H     0.228000000    -1.311000000    -1.036000000
C    -0.699000000     0.500000000    -0.161000000
H    -0.765000000    -0.023000000     0.790000000
C    -1.328000000     1.657000000    -0.505000000
H    -1.807000000     2.201000000     0.305000000
C    -1.385000000     2.168000000    -1.878000000
C    -2.127000000     3.397000000    -2.135000000
O    -2.270000000     4.121000000    -1.244000000
O    -2.503000000     3.648000000    -3.271000000
