14
-82.01915
C    -1.105000000     1.211000000     1.577000000
H    -2.153000000     1.366000000     1.823000000
C    -0.743000000     0.186000000     0.732000000
H    -1.545000000    -0.346000000     0.228000000
C     0.587000000     0.109000000     0.243000000
H     0.806000000    -0.628000000    -0.500000000
C     1.538000000     0.989000000     0.728000000
H     2.566000000     0.963000000     0.376000000
C     1.112000000     1.934000000     1.691000000
H     1.797000000     2.679000000     2.086000000
C    -0.175000000     2.047000000     2.106000000
C    -0.636000000     3.186000000     3.031000000
O     0.151000000     4.090000000     3.249000000
O    -1.776000000     3.316000000     3.256000000
