14
-87.98403
C    -1.366000000     2.434000000     1.182000000
H    -2.306000000     2.959000000     1.331000000
C    -1.307000000     1.529000000     0.134000000
H    -2.064000000     1.410000000    -0.637000000
C    -0.154000000     0.732000000     0.031000000
H    -0.088000000    -0.058000000    -0.693000000
C     0.873000000     0.911000000     0.939000000
H     1.808000000     0.380000000     0.784000000
C     0.768000000     1.827000000     1.995000000
H     1.583000000     1.944000000     2.705000000
C    -0.348000000     2.600000000     2.133000000
C    -0.458000000     3.563000000     3.271000000
O     0.404000000     3.657000000     4.125000000
O    -1.278000000     4.438000000     3.147000000
