14
-84.18790
C    -2.506000000     2.752000000     2.283000000
H    -3.194000000     3.567000000     2.495000000
C    -2.717000000     1.715000000     1.351000000
H    -3.660000000     1.535000000     0.839000000
C    -1.758000000     0.676000000     1.049000000
H    -1.846000000     0.041000000     0.239000000
C    -0.584000000     0.743000000     1.794000000
H     0.246000000     0.072000000     1.585000000
C    -0.339000000     1.780000000     2.747000000
H     0.651000000     1.860000000     3.189000000
C    -1.346000000     2.780000000     3.024000000
C    -1.237000000     3.863000000     4.077000000
O    -0.097000000     4.165000000     4.502000000
O    -2.169000000     4.672000000     4.255000000
