14
-78.10058
C    -1.221000000     1.671000000     1.921000000
H    -1.956000000     2.184000000     2.536000000
C    -1.636000000     0.775000000     0.925000000
H    -2.692000000     0.567000000     0.771000000
C    -0.737000000     0.083000000     0.183000000
H    -0.981000000    -0.726000000    -0.571000000
C     0.611000000     0.280000000     0.389000000
H     1.258000000    -0.372000000    -0.192000000
C     1.112000000     1.188000000     1.311000000
H     2.172000000     1.362000000     1.475000000
C     0.199000000     1.877000000     2.115000000
C     0.621000000     2.774000000     3.220000000
O     1.718000000     3.255000000     3.046000000
O    -0.157000000     3.257000000     3.946000000
