14
-86.81704
C    -1.078000000     2.420000000     2.306000000
H    -1.745000000     3.139000000     2.775000000
C    -1.517000000     1.669000000     1.211000000
H    -2.526000000     1.840000000     0.843000000
C    -0.765000000     0.636000000     0.689000000
H    -1.221000000    -0.046000000     0.043000000
C     0.521000000     0.492000000     1.123000000
H     1.133000000    -0.277000000     0.660000000
C     1.005000000     1.347000000     2.115000000
H     2.056000000     1.186000000     2.345000000
C     0.237000000     2.266000000     2.748000000
C     0.827000000     3.068000000     3.927000000
O     1.987000000     3.001000000     4.194000000
O     0.107000000     3.793000000     4.623000000
