14
-70.62366
C    -1.315000000     1.303000000     1.547000000
H    -2.022000000     1.883000000     2.134000000
C    -1.660000000     0.389000000     0.543000000
H    -2.712000000     0.118000000     0.494000000
C    -0.638000000    -0.459000000    -0.012000000
H    -0.806000000    -1.324000000    -0.574000000
C     0.644000000     0.009000000     0.053000000
H     1.403000000    -0.530000000    -0.508000000
C     0.941000000     1.099000000     0.856000000
H     1.981000000     1.407000000     0.939000000
C     0.023000000     1.721000000     1.676000000
C     0.409000000     2.796000000     2.616000000
O     1.525000000     3.145000000     2.696000000
O    -0.338000000     3.336000000     3.393000000
