14
-86.88529
C    -2.188000000     2.425000000     1.396000000
H    -3.021000000     3.087000000     1.174000000
C    -2.173000000     1.185000000     0.784000000
H    -2.926000000     0.862000000     0.069000000
C    -1.085000000     0.389000000     0.979000000
H    -1.168000000    -0.556000000     0.428000000
C     0.019000000     0.864000000     1.712000000
H     0.952000000     0.329000000     1.872000000
C    -0.025000000     2.124000000     2.295000000
H     0.829000000     2.394000000     2.911000000
C    -1.134000000     2.965000000     2.198000000
C    -1.068000000     4.316000000     2.834000000
O    -0.284000000     4.476000000     3.739000000
O    -1.763000000     5.275000000     2.433000000
