14
-90.02664
C    -0.997000000     2.281000000     2.048000000
H    -1.772000000     2.906000000     2.484000000
C    -1.353000000     1.403000000     1.043000000
H    -2.382000000     1.490000000     0.702000000
C    -0.420000000     0.564000000     0.445000000
H    -0.668000000    -0.072000000    -0.343000000
C     0.887000000     0.586000000     0.904000000
H     1.615000000     0.056000000     0.295000000
C     1.206000000     1.384000000     2.013000000
H     2.250000000     1.502000000     2.292000000
C     0.284000000     2.231000000     2.646000000
C     0.647000000     3.352000000     3.623000000
O     1.857000000     3.546000000     3.705000000
O    -0.198000000     4.114000000     4.080000000
