14
-88.17808
C    -1.413000000     1.777000000     0.965000000
H    -2.445000000     2.103000000     1.067000000
C    -1.081000000     0.834000000    -0.011000000
H    -1.868000000     0.402000000    -0.625000000
C     0.215000000     0.434000000    -0.162000000
H     0.470000000    -0.347000000    -0.852000000
C     1.291000000     1.010000000     0.532000000
H     2.325000000     0.798000000     0.271000000
C     0.989000000     2.028000000     1.412000000
H     1.763000000     2.569000000     1.951000000
C    -0.382000000     2.387000000     1.675000000
C    -0.738000000     3.428000000     2.755000000
O     0.063000000     4.249000000     3.116000000
O    -1.901000000     3.546000000     3.051000000
