14
-82.95332
C    -1.593000000     0.931000000     0.377000000
H    -2.667000000     0.814000000     0.494000000
C    -0.802000000    -0.223000000     0.104000000
H    -1.223000000    -1.225000000     0.097000000
C     0.516000000    -0.102000000    -0.243000000
H     1.078000000    -0.980000000    -0.473000000
C     1.140000000     1.088000000    -0.151000000
H     2.210000000     1.086000000    -0.345000000
C     0.419000000     2.246000000     0.025000000
H     0.897000000     3.213000000    -0.108000000
C    -0.993000000     2.206000000     0.273000000
C    -1.677000000     3.507000000     0.460000000
O    -1.125000000     4.586000000     0.409000000
O    -2.863000000     3.502000000     0.699000000
