14
-84.18471
C    -0.984000000     2.490000000     0.683000000
H    -1.906000000     3.014000000     0.924000000
C    -0.903000000     1.169000000     0.228000000
H    -1.844000000     0.626000000     0.243000000
C     0.276000000     0.472000000    -0.128000000
H     0.351000000    -0.570000000    -0.586000000
C     1.429000000     1.178000000     0.026000000
H     2.376000000     0.683000000    -0.175000000
C     1.407000000     2.533000000     0.393000000
H     2.350000000     3.054000000     0.541000000
C     0.194000000     3.240000000     0.654000000
C     0.147000000     4.715000000     0.930000000
O     1.115000000     5.421000000     0.783000000
O    -0.900000000     5.247000000     1.239000000
