14
-79.92300
C    -1.481000000     2.038000000    -0.577000000
H    -2.332000000     2.663000000    -0.833000000
C    -1.490000000     0.635000000    -0.657000000
H    -2.438000000     0.137000000    -0.843000000
C    -0.289000000    -0.035000000    -0.346000000
H    -0.345000000    -1.129000000    -0.297000000
C     0.801000000     0.679000000     0.209000000
H     1.690000000     0.225000000     0.638000000
C     0.703000000     2.050000000     0.263000000
H     1.589000000     2.580000000     0.603000000
C    -0.327000000     2.711000000    -0.330000000
C    -0.394000000     4.211000000    -0.264000000
O     0.315000000     4.779000000     0.505000000
O    -1.206000000     4.865000000    -0.918000000
