14
-91.22460
C    -0.033000000     1.289000000    -2.173000000
H     0.383000000     1.251000000    -3.176000000
C     0.330000000     0.304000000    -1.264000000
H     0.970000000    -0.536000000    -1.521000000
C    -0.251000000     0.263000000    -0.017000000
H    -0.022000000    -0.605000000     0.640000000
C    -1.158000000     1.229000000     0.354000000
H    -1.512000000     1.173000000     1.380000000
C    -1.505000000     2.274000000    -0.486000000
H    -2.334000000     2.903000000    -0.171000000
C    -0.986000000     2.290000000    -1.738000000
C    -1.290000000     3.400000000    -2.724000000
O    -1.949000000     4.361000000    -2.295000000
O    -0.853000000     3.364000000    -3.872000000
