14
-82.15233
C    -1.038000000     2.366000000    -0.629000000
H    -1.877000000     2.911000000    -1.055000000
C    -1.239000000     1.029000000    -0.406000000
H    -2.179000000     0.521000000    -0.604000000
C    -0.270000000     0.241000000     0.176000000
H    -0.546000000    -0.799000000     0.409000000
C     0.967000000     0.822000000     0.505000000
H     1.777000000     0.171000000     0.824000000
C     1.181000000     2.182000000     0.210000000
H     2.056000000     2.699000000     0.596000000
C     0.125000000     2.999000000    -0.308000000
C     0.279000000     4.506000000    -0.379000000
O     1.346000000     5.032000000    -0.237000000
O    -0.709000000     5.170000000    -0.315000000
