14
-79.83807
C    -0.868000000     2.081000000    -0.972000000
H    -1.821000000     2.460000000    -1.332000000
C    -0.697000000     0.695000000    -0.709000000
H    -1.421000000    -0.074000000    -0.966000000
C     0.375000000     0.194000000     0.034000000
H     0.369000000    -0.771000000     0.384000000
C     1.324000000     1.110000000     0.503000000
H     2.166000000     0.699000000     1.055000000
C     1.275000000     2.482000000     0.196000000
H     2.006000000     3.182000000     0.590000000
C     0.164000000     2.977000000    -0.600000000
C     0.059000000     4.492000000    -0.720000000
O     1.016000000     5.177000000    -0.614000000
O    -0.984000000     4.989000000    -1.030000000
