14
-82.55606
C    -0.567000000     2.717000000    -0.787000000
H    -1.358000000     3.388000000    -1.115000000
C    -0.874000000     1.366000000    -0.719000000
H    -1.865000000     1.094000000    -1.074000000
C     0.086000000     0.414000000    -0.283000000
H    -0.151000000    -0.620000000    -0.181000000
C     1.378000000     0.875000000     0.081000000
H     2.093000000     0.133000000     0.428000000
C     1.604000000     2.271000000     0.130000000
H     2.581000000     2.656000000     0.408000000
C     0.689000000     3.183000000    -0.332000000
C     1.105000000     4.648000000    -0.206000000
O     2.016000000     5.017000000     0.502000000
O     0.352000000     5.452000000    -0.626000000
