14
-91.52005
C    -0.410000000     2.646000000    -0.816000000
H    -0.721000000     3.551000000    -1.331000000
C    -1.162000000     1.476000000    -0.900000000
H    -2.152000000     1.463000000    -1.350000000
C    -0.556000000     0.275000000    -0.402000000
H    -0.959000000    -0.732000000    -0.556000000
C     0.686000000     0.326000000     0.291000000
H     1.096000000    -0.619000000     0.640000000
C     1.290000000     1.548000000     0.482000000
H     2.187000000     1.648000000     1.089000000
C     0.751000000     2.682000000    -0.083000000
C     1.550000000     3.980000000     0.054000000
O     2.390000000     4.025000000     0.941000000
O     1.195000000     4.980000000    -0.551000000
