14
-88.41117
C    -0.360000000     0.599000000    -1.963000000
H    -0.064000000     0.539000000    -3.007000000
C     0.162000000    -0.271000000    -0.975000000
H     0.893000000    -1.049000000    -1.177000000
C    -0.326000000    -0.168000000     0.338000000
H     0.148000000    -0.748000000     1.117000000
C    -1.182000000     0.886000000     0.683000000
H    -1.466000000     1.099000000     1.711000000
C    -1.652000000     1.677000000    -0.327000000
H    -2.380000000     2.414000000     0.004000000
C    -1.327000000     1.526000000    -1.619000000
C    -1.897000000     2.456000000    -2.706000000
O    -2.844000000     3.117000000    -2.393000000
O    -1.437000000     2.485000000    -3.853000000
