14
-75.02528
C    -0.368000000     2.188000000    -0.941000000
H    -0.899000000     2.851000000    -1.619000000
C    -0.801000000     0.876000000    -0.633000000
H    -1.656000000     0.558000000    -1.226000000
C    -0.151000000     0.073000000     0.241000000
H    -0.551000000    -0.939000000     0.477000000
C     0.901000000     0.594000000     1.020000000
H     1.380000000     0.000000000     1.794000000
C     1.342000000     1.954000000     0.777000000
H     2.161000000     2.388000000     1.346000000
C     0.661000000     2.710000000    -0.150000000
C     1.084000000     4.164000000    -0.352000000
O     1.524000000     4.776000000     0.593000000
O     0.547000000     4.716000000    -1.218000000
