14
-85.52921
C    -1.159000000     3.041000000    -0.746000000
H    -2.116000000     3.511000000    -0.960000000
C    -1.105000000     1.644000000    -0.787000000
H    -2.006000000     1.038000000    -0.839000000
C     0.063000000     1.029000000    -0.521000000
H     0.163000000    -0.056000000    -0.546000000
C     1.129000000     1.754000000     0.052000000
H     1.966000000     1.249000000     0.528000000
C     1.074000000     3.155000000     0.114000000
H     1.855000000     3.796000000     0.517000000
C    -0.012000000     3.839000000    -0.465000000
C     0.028000000     5.363000000    -0.399000000
O     0.903000000     6.044000000     0.134000000
O    -0.907000000     5.931000000    -0.969000000
