14
-91.35441
C    -1.566000000     2.123000000    -1.363000000
H    -2.269000000     2.899000000    -1.658000000
C    -1.908000000     0.757000000    -1.169000000
H    -2.937000000     0.426000000    -1.280000000
C    -0.882000000    -0.171000000    -0.774000000
H    -1.120000000    -1.189000000    -0.612000000
C     0.359000000     0.261000000    -0.530000000
H     1.084000000    -0.446000000    -0.135000000
C     0.764000000     1.576000000    -0.785000000
H     1.780000000     1.874000000    -0.540000000
C    -0.235000000     2.547000000    -1.147000000
C     0.126000000     3.982000000    -1.215000000
O     1.172000000     4.352000000    -0.628000000
O    -0.671000000     4.777000000    -1.737000000
