14
-88.13486
C    -1.269000000     1.297000000     0.543000000
H    -2.310000000     1.551000000     0.358000000
C    -0.700000000     0.108000000     0.096000000
H    -1.309000000    -0.573000000    -0.492000000
C     0.578000000    -0.353000000     0.463000000
H     0.968000000    -1.367000000     0.282000000
C     1.304000000     0.423000000     1.351000000
H     2.264000000     0.052000000     1.701000000
C     0.776000000     1.650000000     1.738000000
H     1.322000000     2.259000000     2.453000000
C    -0.522000000     2.086000000     1.409000000
C    -0.975000000     3.429000000     1.895000000
O    -0.388000000     4.037000000     2.759000000
O    -1.946000000     3.895000000     1.355000000
