14
-91.76219
C    -1.642000000     1.991000000     0.236000000
H    -2.411000000     2.452000000    -0.379000000
C    -0.970000000     0.860000000    -0.241000000
H    -1.175000000     0.440000000    -1.222000000
C     0.103000000     0.354000000     0.471000000
H     0.595000000    -0.465000000    -0.052000000
C     0.396000000     0.841000000     1.681000000
H     1.213000000     0.372000000     2.223000000
C    -0.202000000     2.012000000     2.178000000
H     0.110000000     2.417000000     3.137000000
C    -1.153000000     2.669000000     1.413000000
C    -1.883000000     3.934000000     1.934000000
O    -1.402000000     4.439000000     2.949000000
O    -2.902000000     4.284000000     1.337000000
