14
-89.64925
C    -1.417000000     2.252000000    -0.561000000
H    -2.358000000     2.742000000    -0.795000000
C    -1.048000000     0.950000000    -0.883000000
H    -1.680000000     0.432000000    -1.599000000
C     0.152000000     0.464000000    -0.458000000
H     0.506000000    -0.566000000    -0.796000000
C     0.899000000     1.198000000     0.467000000
H     1.804000000     0.729000000     0.843000000
C     0.520000000     2.516000000     0.850000000
H     1.128000000     3.166000000     1.475000000
C    -0.651000000     3.015000000     0.306000000
C    -1.019000000     4.427000000     0.686000000
O    -0.308000000     5.174000000     1.399000000
O    -2.070000000     4.843000000     0.243000000
