14
-86.71187
C    -0.757000000     2.621000000    -0.884000000
H    -1.267000000     3.310000000    -1.553000000
C    -0.909000000     1.229000000    -0.992000000
H    -1.694000000     0.861000000    -1.647000000
C    -0.379000000     0.336000000    -0.120000000
H    -0.587000000    -0.743000000    -0.133000000
C     0.527000000     0.771000000     0.869000000
H     1.034000000     0.050000000     1.505000000
C     0.868000000     2.122000000     0.924000000
H     1.551000000     2.681000000     1.559000000
C     0.208000000     3.040000000     0.044000000
C     0.593000000     4.504000000     0.224000000
O     1.049000000     4.869000000     1.318000000
O     0.449000000     5.329000000    -0.638000000
