14
-83.70040
C    -0.120000000     2.487000000    -0.966000000
H    -0.429000000     3.326000000    -1.584000000
C    -0.705000000     1.228000000    -1.247000000
H    -1.467000000     1.129000000    -2.016000000
C    -0.214000000     0.094000000    -0.584000000
H    -0.611000000    -0.917000000    -0.854000000
C     0.800000000     0.261000000     0.327000000
H     1.252000000    -0.593000000     0.826000000
C     1.212000000     1.533000000     0.735000000
H     1.996000000     1.574000000     1.487000000
C     0.820000000     2.697000000     0.094000000
C     1.382000000     4.130000000     0.392000000
O     2.240000000     4.326000000     1.237000000
O     1.061000000     5.061000000    -0.267000000
