14
-81.10565
C    -1.722000000     1.876000000    -0.179000000
H    -2.708000000     1.891000000    -0.637000000
C    -1.013000000     0.721000000    -0.430000000
H    -1.395000000    -0.046000000    -1.098000000
C     0.218000000     0.497000000     0.263000000
H     0.832000000    -0.456000000     0.151000000
C     0.742000000     1.518000000     0.958000000
H     1.732000000     1.402000000     1.394000000
C    -0.053000000     2.652000000     1.271000000
H     0.338000000     3.416000000     1.938000000
C    -1.338000000     2.836000000     0.710000000
C    -2.105000000     4.082000000     0.999000000
O    -1.908000000     4.749000000     1.998000000
O    -2.952000000     4.477000000     0.247000000
