14
-87.31297
C    -1.208000000     0.612000000     0.168000000
H    -2.237000000     0.577000000    -0.180000000
C    -0.297000000    -0.420000000    -0.098000000
H    -0.552000000    -1.322000000    -0.649000000
C     0.962000000    -0.352000000     0.361000000
H     1.615000000    -1.209000000     0.207000000
C     1.480000000     0.843000000     0.893000000
H     2.534000000     0.844000000     1.156000000
C     0.617000000     1.930000000     1.005000000
H     0.993000000     2.890000000     1.349000000
C    -0.753000000     1.833000000     0.677000000
C    -1.678000000     2.963000000     0.928000000
O    -1.367000000     4.107000000     1.253000000
O    -2.842000000     2.767000000     0.566000000
