14
-86.84370
C    -1.089000000     2.168000000    -0.747000000
H    -1.699000000     2.669000000    -1.495000000
C    -1.140000000     0.794000000    -0.775000000
H    -1.617000000     0.304000000    -1.620000000
C    -0.548000000     0.046000000     0.253000000
H    -0.535000000    -1.049000000     0.184000000
C     0.258000000     0.632000000     1.208000000
H     0.936000000     0.041000000     1.819000000
C     0.221000000     1.999000000     1.294000000
H     0.680000000     2.495000000     2.145000000
C    -0.384000000     2.833000000     0.341000000
C    -0.436000000     4.299000000     0.506000000
O     0.307000000     4.814000000     1.357000000
O    -1.333000000     4.965000000    -0.008000000
