14
-82.38000
C    -1.634000000     1.923000000    -0.401000000
H    -2.430000000     2.236000000    -1.072000000
C    -1.254000000     0.554000000    -0.587000000
H    -1.740000000    -0.022000000    -1.370000000
C    -0.084000000     0.075000000     0.066000000
H     0.369000000    -0.886000000    -0.124000000
C     0.555000000     0.910000000     0.947000000
H     1.407000000     0.592000000     1.543000000
C     0.069000000     2.185000000     1.202000000
H     0.586000000     2.874000000     1.865000000
C    -1.013000000     2.760000000     0.521000000
C    -1.402000000     4.191000000     0.633000000
O    -1.097000000     4.830000000     1.623000000
O    -2.280000000     4.663000000    -0.058000000
