14
-86.52847
C    -1.263000000     0.944000000    -0.455000000
H    -2.280000000     1.053000000    -0.824000000
C    -0.708000000    -0.303000000    -0.359000000
H    -1.296000000    -1.129000000    -0.751000000
C     0.545000000    -0.447000000     0.201000000
H     1.156000000    -1.315000000     0.154000000
C     1.177000000     0.731000000     0.725000000
H     2.109000000     0.680000000     1.282000000
C     0.554000000     1.965000000     0.696000000
H     1.120000000     2.705000000     1.256000000
C    -0.653000000     2.126000000     0.047000000
C    -1.293000000     3.509000000     0.159000000
O    -0.745000000     4.411000000     0.723000000
O    -2.397000000     3.681000000    -0.416000000
