14
-85.20521
C    -1.646000000     0.997000000     0.070000000
H    -2.703000000     1.124000000    -0.147000000
C    -0.892000000    -0.093000000    -0.272000000
H    -1.307000000    -0.983000000    -0.739000000
C     0.444000000    -0.168000000    -0.052000000
H     1.070000000    -0.874000000    -0.604000000
C     1.178000000     0.922000000     0.429000000
H     2.265000000     0.900000000     0.468000000
C     0.453000000     2.021000000     0.836000000
H     0.949000000     2.885000000     1.271000000
C    -0.952000000     2.084000000     0.665000000
C    -1.679000000     3.410000000     0.984000000
O    -0.985000000     4.405000000     1.087000000
O    -2.875000000     3.488000000     0.883000000
