14
-88.10961
C    -1.972000000     2.370000000    -0.114000000
H    -2.895000000     2.944000000    -0.141000000
C    -1.824000000     1.202000000    -0.826000000
H    -2.555000000     0.874000000    -1.561000000
C    -0.743000000     0.374000000    -0.556000000
H    -0.747000000    -0.594000000    -0.897000000
C     0.234000000     0.797000000     0.371000000
H     1.029000000     0.114000000     0.660000000
C     0.195000000     2.061000000     0.921000000
H     1.100000000     2.334000000     1.458000000
C    -0.934000000     2.865000000     0.712000000
C    -1.164000000     4.218000000     1.351000000
O    -0.146000000     4.736000000     1.810000000
O    -2.201000000     4.801000000     1.230000000
