14
-89.58596
C    -1.510000000     1.729000000    -0.638000000
H    -2.265000000     2.197000000    -1.265000000
C    -0.990000000     0.456000000    -0.997000000
H    -1.459000000    -0.013000000    -1.858000000
C     0.021000000    -0.084000000    -0.276000000
H     0.431000000    -0.995000000    -0.635000000
C     0.477000000     0.553000000     0.844000000
H     1.132000000     0.096000000     1.582000000
C    -0.085000000     1.793000000     1.228000000
H     0.313000000     2.123000000     2.184000000
C    -1.108000000     2.383000000     0.489000000
C    -1.729000000     3.769000000     0.779000000
O    -1.408000000     4.308000000     1.826000000
O    -2.437000000     4.345000000    -0.081000000
