14
-86.70665
C    -1.755000000     1.498000000     0.309000000
H    -2.830000000     1.483000000     0.146000000
C    -0.929000000     0.468000000    -0.142000000
H    -1.414000000    -0.426000000    -0.526000000
C     0.442000000     0.531000000     0.050000000
H     1.087000000    -0.272000000    -0.196000000
C     1.017000000     1.624000000     0.637000000
H     2.093000000     1.776000000     0.652000000
C     0.235000000     2.662000000     1.074000000
H     0.666000000     3.599000000     1.415000000
C    -1.175000000     2.652000000     0.912000000
C    -1.997000000     3.847000000     1.332000000
O    -1.421000000     4.790000000     1.779000000
O    -3.208000000     3.877000000     1.255000000
