14
-85.83145
C    -2.216000000     1.168000000     0.267000000
H    -3.224000000     1.106000000    -0.134000000
C    -1.362000000     0.112000000     0.011000000
H    -1.670000000    -0.831000000    -0.432000000
C    -0.041000000     0.226000000     0.366000000
H     0.731000000    -0.550000000     0.247000000
C     0.435000000     1.355000000     0.887000000
H     1.489000000     1.410000000     1.146000000
C    -0.442000000     2.384000000     1.185000000
H    -0.040000000     3.285000000     1.644000000
C    -1.797000000     2.295000000     0.955000000
C    -2.694000000     3.495000000     1.098000000
O    -2.219000000     4.571000000     1.397000000
O    -3.892000000     3.370000000     0.903000000
