14
-89.99712
C    -2.592000000     1.300000000    -0.144000000
H    -3.588000000     1.632000000    -0.425000000
C    -2.244000000    -0.054000000    -0.335000000
H    -2.878000000    -0.695000000    -0.942000000
C    -0.944000000    -0.442000000    -0.115000000
H    -0.637000000    -1.443000000    -0.323000000
C     0.000000000     0.427000000     0.333000000
H     1.039000000     0.120000000     0.424000000
C    -0.318000000     1.768000000     0.639000000
H     0.429000000     2.481000000     0.977000000
C    -1.656000000     2.208000000     0.399000000
C    -2.049000000     3.693000000     0.665000000
O    -1.252000000     4.419000000     1.273000000
O    -3.080000000     4.191000000     0.233000000
