14
-81.67957
C    -2.448000000     1.369000000    -0.020000000
H    -3.438000000     1.648000000    -0.372000000
C    -1.940000000     0.062000000    -0.340000000
H    -2.542000000    -0.633000000    -0.920000000
C    -0.582000000    -0.227000000    -0.225000000
H    -0.179000000    -1.221000000    -0.515000000
C     0.245000000     0.672000000     0.394000000
H     1.246000000     0.303000000     0.601000000
C    -0.274000000     1.886000000     0.839000000
H     0.441000000     2.517000000     1.361000000
C    -1.622000000     2.243000000     0.620000000
C    -2.143000000     3.600000000     0.967000000
O    -1.429000000     4.529000000     0.958000000
O    -3.378000000     3.738000000     0.949000000
