14
-81.86907
C    -1.954000000     1.724000000    -0.867000000
H    -3.010000000     1.777000000    -1.116000000
C    -1.343000000     0.493000000    -0.848000000
H    -1.839000000    -0.414000000    -1.184000000
C    -0.002000000     0.476000000    -0.412000000
H     0.433000000    -0.552000000    -0.432000000
C     0.711000000     1.612000000    -0.160000000
H     1.770000000     1.634000000     0.082000000
C    -0.004000000     2.800000000    -0.222000000
H     0.502000000     3.733000000     0.015000000
C    -1.330000000     2.958000000    -0.509000000
C    -2.085000000     4.241000000    -0.550000000
O    -1.552000000     5.269000000    -0.253000000
O    -3.086000000     4.242000000    -1.248000000
