14
-82.64877
C    -1.482000000     1.563000000    -1.071000000
H    -2.470000000     1.702000000    -1.502000000
C    -1.210000000     0.275000000    -0.668000000
H    -1.934000000    -0.515000000    -0.847000000
C    -0.046000000    -0.096000000    -0.072000000
H     0.092000000    -1.131000000     0.123000000
C     0.919000000     0.837000000     0.181000000
H     1.839000000     0.524000000     0.668000000
C     0.714000000     2.193000000    -0.132000000
H     1.512000000     2.898000000     0.086000000
C    -0.491000000     2.556000000    -0.794000000
C    -0.831000000     4.014000000    -1.048000000
O     0.035000000     4.822000000    -1.104000000
O    -1.964000000     4.365000000    -1.315000000
