14
-79.23476
C    -1.574000000     1.522000000    -0.617000000
H    -2.658000000     1.450000000    -0.575000000
C    -0.919000000     0.337000000    -0.351000000
H    -1.544000000    -0.538000000    -0.193000000
C     0.454000000     0.309000000    -0.255000000
H     0.952000000    -0.619000000     0.056000000
C     1.127000000     1.505000000    -0.373000000
H     2.205000000     1.373000000    -0.334000000
C     0.532000000     2.750000000    -0.500000000
H     1.141000000     3.646000000    -0.415000000
C    -0.880000000     2.802000000    -0.691000000
C    -1.580000000     4.070000000    -1.067000000
O    -0.955000000     5.072000000    -1.191000000
O    -2.815000000     4.195000000    -1.006000000
