14
-83.22510
C    -1.236000000     1.788000000     0.253000000
H    -2.057000000     2.427000000     0.567000000
C    -0.918000000     0.643000000     0.943000000
H    -1.486000000     0.443000000     1.848000000
C     0.021000000    -0.322000000     0.504000000
H     0.192000000    -1.272000000     0.971000000
C     0.609000000    -0.100000000    -0.708000000
H     1.436000000    -0.727000000    -1.032000000
C     0.326000000     1.081000000    -1.430000000
H     0.944000000     1.374000000    -2.275000000
C    -0.601000000     2.019000000    -0.969000000
C    -0.974000000     3.247000000    -1.825000000
O    -0.414000000     3.384000000    -2.914000000
O    -2.022000000     3.780000000    -1.651000000
