14
-90.36574
C    -1.746000000     1.479000000    -1.090000000
H    -2.662000000     1.819000000    -1.567000000
C    -1.380000000     0.107000000    -0.945000000
H    -2.088000000    -0.636000000    -1.303000000
C    -0.238000000    -0.235000000    -0.246000000
H     0.114000000    -1.304000000    -0.160000000
C     0.674000000     0.792000000     0.140000000
H     1.609000000     0.494000000     0.608000000
C     0.415000000     2.116000000    -0.148000000
H     1.071000000     2.920000000     0.176000000
C    -0.805000000     2.459000000    -0.760000000
C    -1.106000000     3.930000000    -0.982000000
O    -0.327000000     4.859000000    -0.680000000
O    -2.150000000     4.134000000    -1.520000000
