14
-85.52969
C    -1.618000000     2.221000000     0.289000000
H    -2.342000000     2.637000000     0.984000000
C    -0.872000000     1.056000000     0.614000000
H    -0.955000000     0.517000000     1.554000000
C    -0.001000000     0.540000000    -0.419000000
H     0.615000000    -0.351000000    -0.182000000
C     0.101000000     1.146000000    -1.637000000
H     0.857000000     0.769000000    -2.321000000
C    -0.681000000     2.231000000    -1.982000000
H    -0.746000000     2.528000000    -3.026000000
C    -1.529000000     2.748000000    -1.003000000
C    -2.373000000     3.959000000    -1.338000000
O    -2.391000000     4.406000000    -2.446000000
O    -3.207000000     4.332000000    -0.537000000
