14
-83.14171
C    -1.883000000     2.081000000     0.089000000
H    -2.734000000     2.686000000     0.391000000
C    -1.503000000     0.989000000     0.860000000
H    -1.905000000     0.682000000     1.822000000
C    -0.388000000     0.233000000     0.431000000
H    -0.015000000    -0.620000000     1.022000000
C     0.309000000     0.636000000    -0.680000000
H     1.175000000     0.035000000    -0.947000000
C    -0.118000000     1.705000000    -1.448000000
H     0.464000000     1.922000000    -2.340000000
C    -1.231000000     2.454000000    -1.089000000
C    -1.742000000     3.569000000    -1.933000000
O    -1.488000000     3.657000000    -3.139000000
O    -2.727000000     4.113000000    -1.535000000
