14
-89.09955
C    -1.652000000     1.388000000    -0.230000000
H    -2.582000000     1.702000000     0.237000000
C    -0.767000000     0.452000000     0.329000000
H    -0.770000000     0.039000000     1.334000000
C     0.287000000    -0.086000000    -0.429000000
H     0.963000000    -0.781000000    -0.008000000
C     0.403000000     0.330000000    -1.757000000
H     1.163000000    -0.153000000    -2.365000000
C    -0.393000000     1.265000000    -2.281000000
H    -0.293000000     1.602000000    -3.310000000
C    -1.467000000     1.745000000    -1.557000000
C    -2.438000000     2.707000000    -2.290000000
O    -2.022000000     3.415000000    -3.178000000
O    -3.660000000     2.610000000    -2.067000000
