14
-84.59682
C    -1.284000000     1.219000000    -2.597000000
H    -1.387000000     1.091000000    -3.671000000
C    -0.493000000     0.373000000    -1.844000000
H     0.058000000    -0.431000000    -2.326000000
C    -0.537000000     0.417000000    -0.447000000
H    -0.092000000    -0.246000000     0.227000000
C    -1.223000000     1.436000000     0.165000000
H    -1.251000000     1.392000000     1.250000000
C    -1.873000000     2.407000000    -0.570000000
H    -2.238000000     3.330000000    -0.128000000
C    -1.945000000     2.260000000    -1.994000000
C    -2.594000000     3.321000000    -2.818000000
O    -2.865000000     4.377000000    -2.291000000
O    -2.686000000     3.243000000    -4.020000000
