14
-86.71016
C    -2.344000000     0.111000000    -0.580000000
H    -3.309000000    -0.302000000    -0.864000000
C    -1.381000000    -0.849000000    -0.200000000
H    -1.648000000    -1.902000000    -0.160000000
C    -0.105000000    -0.476000000     0.219000000
H     0.589000000    -1.292000000     0.611000000
C     0.142000000     0.843000000     0.131000000
H     1.118000000     1.224000000     0.421000000
C    -0.733000000     1.844000000    -0.334000000
H    -0.453000000     2.888000000    -0.446000000
C    -2.051000000     1.478000000    -0.611000000
C    -3.108000000     2.496000000    -1.045000000
O    -2.679000000     3.557000000    -1.401000000
O    -4.262000000     2.175000000    -1.110000000
