14
-88.70148
C    -1.876000000    -0.611000000    -1.300000000
H    -2.530000000    -1.196000000    -1.941000000
C    -0.890000000    -1.257000000    -0.537000000
H    -0.807000000    -2.339000000    -0.480000000
C     0.086000000    -0.541000000     0.190000000
H     0.864000000    -1.081000000     0.779000000
C     0.014000000     0.846000000     0.223000000
H     0.686000000     1.454000000     0.823000000
C    -0.916000000     1.468000000    -0.627000000
H    -0.998000000     2.548000000    -0.711000000
C    -1.965000000     0.733000000    -1.307000000
C    -3.002000000     1.417000000    -2.170000000
O    -3.152000000     2.616000000    -2.070000000
O    -3.718000000     0.789000000    -2.960000000
