14
-89.49664
C    -1.595000000    -0.605000000    -1.423000000
H    -2.224000000    -1.286000000    -1.991000000
C    -0.494000000    -1.110000000    -0.669000000
H    -0.332000000    -2.183000000    -0.735000000
C     0.164000000    -0.275000000     0.198000000
H     0.946000000    -0.630000000     0.949000000
C    -0.030000000     1.121000000     0.110000000
H     0.646000000     1.838000000     0.570000000
C    -1.169000000     1.582000000    -0.552000000
H    -1.455000000     2.631000000    -0.553000000
C    -1.908000000     0.762000000    -1.374000000
C    -3.115000000     1.336000000    -2.145000000
O    -3.587000000     2.415000000    -1.881000000
O    -3.469000000     0.676000000    -3.114000000
