14
-85.47908
C    -1.188000000     0.367000000    -2.422000000
H    -1.204000000     0.323000000    -3.508000000
C    -0.198000000    -0.416000000    -1.789000000
H     0.445000000    -1.032000000    -2.413000000
C     0.008000000    -0.214000000    -0.407000000
H     0.723000000    -0.849000000     0.157000000
C    -0.827000000     0.643000000     0.334000000
H    -0.719000000     0.822000000     1.400000000
C    -1.806000000     1.415000000    -0.353000000
H    -2.497000000     2.029000000     0.218000000
C    -1.934000000     1.314000000    -1.705000000
C    -2.697000000     2.432000000    -2.463000000
O    -3.179000000     3.328000000    -1.870000000
O    -2.638000000     2.444000000    -3.681000000
