14
-77.43444
C    -2.290000000     0.078000000    -0.291000000
H    -3.187000000    -0.535000000    -0.304000000
C    -1.092000000    -0.549000000    -0.200000000
H    -1.184000000    -1.628000000    -0.294000000
C     0.071000000     0.267000000    -0.223000000
H     1.019000000    -0.218000000    -0.138000000
C    -0.065000000     1.658000000    -0.242000000
H     0.783000000     2.338000000    -0.244000000
C    -1.310000000     2.238000000    -0.368000000
H    -1.459000000     3.312000000    -0.443000000
C    -2.420000000     1.466000000    -0.429000000
C    -3.767000000     2.075000000    -0.847000000
O    -3.778000000     3.106000000    -1.434000000
O    -4.866000000     1.536000000    -0.774000000
