14
-81.25800
C    -2.227000000    -0.660000000    -1.201000000
H    -2.802000000    -1.575000000    -1.315000000
C    -1.084000000    -0.575000000    -0.427000000
H    -0.682000000    -1.426000000     0.116000000
C    -0.226000000     0.541000000    -0.510000000
H     0.640000000     0.595000000     0.151000000
C    -0.570000000     1.624000000    -1.259000000
H     0.000000000     2.550000000    -1.263000000
C    -1.801000000     1.589000000    -1.966000000
H    -2.075000000     2.422000000    -2.608000000
C    -2.595000000     0.409000000    -1.966000000
C    -3.752000000     0.337000000    -2.874000000
O    -4.011000000     1.260000000    -3.611000000
O    -4.623000000    -0.500000000    -2.779000000
