14
-85.88462
C    -2.310000000    -0.501000000    -0.609000000
H    -3.374000000    -0.724000000    -0.641000000
C    -1.576000000    -0.429000000     0.556000000
H    -2.183000000    -0.427000000     1.458000000
C    -0.178000000    -0.241000000     0.627000000
H     0.338000000     0.123000000     1.537000000
C     0.461000000    -0.043000000    -0.579000000
H     1.539000000     0.092000000    -0.538000000
C    -0.274000000    -0.147000000    -1.801000000
H     0.270000000    -0.133000000    -2.742000000
C    -1.639000000    -0.331000000    -1.852000000
C    -2.483000000    -0.255000000    -3.127000000
O    -2.001000000     0.032000000    -4.198000000
O    -3.719000000    -0.286000000    -3.031000000
