14
-86.74302
C    -1.975000000    -0.999000000    -1.244000000
H    -2.455000000    -1.974000000    -1.230000000
C    -0.695000000    -0.856000000    -0.634000000
H    -0.257000000    -1.709000000    -0.122000000
C    -0.049000000     0.284000000    -0.690000000
H     0.943000000     0.368000000    -0.257000000
C    -0.703000000     1.431000000    -1.157000000
H    -0.140000000     2.359000000    -1.110000000
C    -1.987000000     1.357000000    -1.770000000
H    -2.486000000     2.210000000    -2.223000000
C    -2.632000000     0.166000000    -1.825000000
C    -3.895000000    -0.042000000    -2.603000000
O    -4.439000000     0.941000000    -3.131000000
O    -4.323000000    -1.210000000    -2.800000000
