14
-86.65789
C    -0.982000000     0.973000000    -2.095000000
H    -0.826000000     0.979000000    -3.171000000
C    -0.155000000     0.196000000    -1.367000000
H     0.709000000    -0.333000000    -1.760000000
C    -0.236000000     0.248000000    -0.004000000
H     0.442000000    -0.525000000     0.442000000
C    -1.108000000     1.121000000     0.641000000
H    -1.097000000     1.166000000     1.727000000
C    -1.973000000     1.880000000    -0.120000000
H    -2.710000000     2.532000000     0.341000000
C    -1.983000000     1.755000000    -1.529000000
C    -2.976000000     2.430000000    -2.382000000
O    -3.837000000     3.124000000    -1.878000000
O    -2.800000000     2.329000000    -3.597000000
