14
-74.09958
C    -3.370000000     0.235000000    -1.786000000
H    -4.423000000     0.419000000    -1.594000000
C    -2.539000000     0.394000000    -0.721000000
H    -2.893000000     0.666000000     0.270000000
C    -1.197000000     0.147000000    -0.814000000
H    -0.680000000     0.146000000     0.135000000
C    -0.693000000    -0.384000000    -1.906000000
H     0.317000000    -0.784000000    -1.888000000
C    -1.563000000    -0.645000000    -2.979000000
H    -1.105000000    -0.995000000    -3.900000000
C    -2.876000000    -0.286000000    -3.044000000
C    -3.901000000    -0.559000000    -4.153000000
O    -3.445000000    -0.829000000    -5.227000000
O    -5.082000000    -0.404000000    -4.030000000
