14
-87.32482
C    -1.889000000    -0.601000000    -1.741000000
H    -2.924000000    -0.789000000    -2.014000000
C    -1.522000000    -0.661000000    -0.386000000
H    -2.295000000    -0.898000000     0.340000000
C    -0.302000000    -0.332000000     0.083000000
H    -0.064000000    -0.386000000     1.098000000
C     0.578000000     0.213000000    -0.852000000
H     1.548000000     0.576000000    -0.520000000
C     0.305000000     0.246000000    -2.221000000
H     1.034000000     0.569000000    -2.959000000
C    -0.956000000    -0.179000000    -2.684000000
C    -1.277000000    -0.183000000    -4.116000000
O    -0.405000000     0.027000000    -4.915000000
O    -2.379000000    -0.592000000    -4.501000000
