14
-80.87580
C    -1.459000000    -0.872000000    -1.287000000
H    -2.477000000    -1.248000000    -1.227000000
C    -0.685000000    -0.477000000    -0.232000000
H    -0.880000000    -0.782000000     0.793000000
C     0.598000000    -0.001000000    -0.475000000
H     1.171000000     0.243000000     0.455000000
C     0.999000000     0.248000000    -1.781000000
H     1.932000000     0.783000000    -1.941000000
C     0.137000000    -0.125000000    -2.832000000
H     0.387000000     0.014000000    -3.881000000
C    -1.088000000    -0.630000000    -2.562000000
C    -2.006000000    -1.002000000    -3.686000000
O    -1.835000000    -0.609000000    -4.845000000
O    -2.950000000    -1.667000000    -3.430000000
