14
-84.24164
C    -1.653000000    -0.588000000    -0.687000000
H    -2.704000000    -0.827000000    -0.545000000
C    -0.755000000    -0.568000000     0.340000000
H    -1.078000000    -0.807000000     1.350000000
C     0.476000000    -0.110000000     0.076000000
H     1.125000000     0.029000000     0.916000000
C     0.870000000     0.248000000    -1.162000000
H     1.853000000     0.679000000    -1.335000000
C    -0.030000000     0.286000000    -2.207000000
H     0.346000000     0.694000000    -3.142000000
C    -1.358000000    -0.131000000    -1.979000000
C    -2.429000000    -0.216000000    -3.065000000
O    -2.089000000     0.105000000    -4.192000000
O    -3.468000000    -0.833000000    -2.877000000
