14
-87.81325
C    -2.380000000    -0.556000000    -1.476000000
H    -3.461000000    -0.611000000    -1.378000000
C    -1.605000000    -0.390000000    -0.368000000
H    -2.030000000    -0.437000000     0.631000000
C    -0.242000000    -0.111000000    -0.491000000
H     0.276000000     0.005000000     0.338000000
C     0.326000000     0.005000000    -1.787000000
H     1.393000000     0.207000000    -1.829000000
C    -0.453000000    -0.173000000    -2.920000000
H     0.050000000    -0.147000000    -3.883000000
C    -1.817000000    -0.377000000    -2.782000000
C    -2.776000000    -0.303000000    -3.968000000
O    -2.241000000     0.027000000    -5.013000000
O    -4.016000000    -0.478000000    -3.931000000
