14
-88.75616
C    -2.539000000    -0.787000000    -0.868000000
H    -3.605000000    -0.997000000    -0.851000000
C    -1.924000000    -0.284000000     0.279000000
H    -2.491000000    -0.059000000     1.179000000
C    -0.550000000    -0.073000000     0.280000000
H     0.000000000     0.382000000     1.163000000
C     0.205000000    -0.231000000    -0.909000000
H     1.278000000    -0.079000000    -0.833000000
C    -0.382000000    -0.758000000    -2.021000000
H     0.163000000    -0.887000000    -2.952000000
C    -1.789000000    -0.998000000    -2.040000000
C    -2.413000000    -1.657000000    -3.207000000
O    -1.749000000    -1.928000000    -4.181000000
O    -3.657000000    -1.751000000    -3.307000000
