14
-83.38353
C    -2.093000000    -1.327000000    -1.014000000
H    -3.072000000    -1.791000000    -0.924000000
C    -1.358000000    -0.826000000     0.070000000
H    -1.767000000    -0.822000000     1.077000000
C    -0.196000000    -0.103000000    -0.144000000
H     0.401000000     0.308000000     0.674000000
C     0.351000000     0.087000000    -1.385000000
H     1.263000000     0.624000000    -1.632000000
C    -0.351000000    -0.488000000    -2.446000000
H     0.030000000    -0.259000000    -3.438000000
C    -1.567000000    -1.206000000    -2.291000000
C    -2.201000000    -1.871000000    -3.445000000
O    -1.852000000    -1.505000000    -4.584000000
O    -3.084000000    -2.627000000    -3.326000000
