14
-80.83404
C    -2.048000000    -1.093000000    -1.072000000
H    -2.994000000    -1.580000000    -1.294000000
C    -1.430000000    -1.199000000     0.156000000
H    -1.784000000    -1.887000000     0.919000000
C    -0.354000000    -0.458000000     0.519000000
H     0.201000000    -0.631000000     1.438000000
C     0.071000000     0.546000000    -0.320000000
H     0.941000000     1.067000000     0.069000000
C    -0.569000000     0.743000000    -1.580000000
H    -0.235000000     1.550000000    -2.227000000
C    -1.612000000    -0.113000000    -1.958000000
C    -2.332000000     0.053000000    -3.264000000
O    -2.058000000     0.857000000    -4.097000000
O    -3.221000000    -0.718000000    -3.497000000
