14
-88.67143
C    -2.189000000    -0.382000000    -0.226000000
H    -3.113000000    -0.846000000     0.111000000
C    -1.080000000    -0.617000000     0.616000000
H    -1.154000000    -1.078000000     1.598000000
C     0.205000000    -0.201000000     0.195000000
H     0.983000000    -0.552000000     0.825000000
C     0.298000000     0.433000000    -1.050000000
H     1.257000000     0.811000000    -1.393000000
C    -0.813000000     0.536000000    -1.930000000
H    -0.746000000     0.883000000    -2.958000000
C    -2.127000000     0.195000000    -1.504000000
C    -3.403000000     0.254000000    -2.324000000
O    -3.309000000     0.594000000    -3.493000000
O    -4.472000000    -0.005000000    -1.812000000
