14
-79.47439
C    -2.256000000    -1.047000000    -0.923000000
H    -3.204000000    -1.544000000    -1.112000000
C    -1.885000000    -0.549000000     0.307000000
H    -2.566000000    -0.715000000     1.138000000
C    -0.762000000     0.112000000     0.485000000
H    -0.240000000     0.259000000     1.408000000
C     0.110000000     0.265000000    -0.591000000
H     1.027000000     0.815000000    -0.396000000
C    -0.234000000    -0.101000000    -1.909000000
H     0.362000000     0.181000000    -2.773000000
C    -1.463000000    -0.743000000    -2.013000000
C    -2.000000000    -1.064000000    -3.428000000
O    -1.313000000    -0.976000000    -4.447000000
O    -3.189000000    -1.275000000    -3.603000000
