14
-80.41957
C    -2.612000000    -0.889000000    -0.481000000
H    -3.664000000    -1.143000000    -0.376000000
C    -1.840000000    -0.634000000     0.655000000
H    -2.401000000    -0.681000000     1.584000000
C    -0.569000000    -0.229000000     0.566000000
H     0.037000000     0.032000000     1.449000000
C    -0.061000000     0.014000000    -0.659000000
H     0.934000000     0.449000000    -0.716000000
C    -0.784000000    -0.203000000    -1.793000000
H    -0.376000000    -0.144000000    -2.799000000
C    -2.090000000    -0.678000000    -1.740000000
C    -2.856000000    -1.102000000    -2.947000000
O    -2.384000000    -1.108000000    -4.124000000
O    -3.984000000    -1.378000000    -2.768000000
