14
-85.73369
C    -3.366000000     0.387000000    -0.429000000
H    -4.365000000     0.374000000    -0.002000000
C    -2.332000000     0.107000000     0.448000000
H    -2.556000000    -0.015000000     1.505000000
C    -0.966000000     0.079000000     0.076000000
H    -0.171000000     0.135000000     0.836000000
C    -0.732000000     0.073000000    -1.329000000
H     0.287000000     0.007000000    -1.702000000
C    -1.790000000     0.203000000    -2.250000000
H    -1.626000000     0.283000000    -3.322000000
C    -3.091000000     0.480000000    -1.810000000
C    -4.204000000     0.716000000    -2.791000000
O    -4.162000000     0.600000000    -4.010000000
O    -5.343000000     0.800000000    -2.293000000
