14
-88.12591
C    -1.753000000     0.186000000     0.015000000
H    -2.688000000     0.300000000     0.558000000
C    -0.548000000     0.004000000     0.701000000
H    -0.599000000     0.005000000     1.787000000
C     0.667000000     0.031000000    -0.043000000
H     1.661000000     0.001000000     0.511000000
C     0.616000000     0.127000000    -1.392000000
H     1.517000000     0.142000000    -2.000000000
C    -0.587000000     0.126000000    -2.074000000
H    -0.481000000     0.145000000    -3.156000000
C    -1.805000000     0.237000000    -1.416000000
C    -3.085000000     0.407000000    -2.293000000
O    -2.958000000     0.246000000    -3.481000000
O    -4.128000000     0.746000000    -1.796000000
