14
-85.32346
C    -1.674000000     0.070000000    -2.810000000
H    -1.873000000    -0.142000000    -3.857000000
C    -0.550000000    -0.547000000    -2.325000000
H    -0.040000000    -1.251000000    -2.977000000
C    -0.154000000    -0.477000000    -0.990000000
H     0.674000000    -1.092000000    -0.584000000
C    -0.854000000     0.363000000    -0.185000000
H    -0.483000000     0.533000000     0.823000000
C    -1.923000000     1.168000000    -0.690000000
H    -2.479000000     1.779000000     0.017000000
C    -2.340000000     1.030000000    -2.019000000
C    -3.519000000     1.899000000    -2.458000000
O    -3.967000000     2.751000000    -1.698000000
O    -3.779000000     1.952000000    -3.633000000
