14
-84.58110
C    -1.134000000     1.094000000    -0.819000000
H    -1.492000000     2.074000000    -0.512000000
C    -0.095000000     0.489000000    -0.030000000
H     0.249000000     0.955000000     0.891000000
C     0.429000000    -0.707000000    -0.359000000
H     1.251000000    -1.139000000     0.278000000
C     0.026000000    -1.270000000    -1.574000000
H     0.564000000    -2.156000000    -1.903000000
C    -0.959000000    -0.704000000    -2.368000000
H    -1.179000000    -1.158000000    -3.331000000
C    -1.545000000     0.545000000    -2.014000000
C    -2.623000000     1.133000000    -2.886000000
O    -2.781000000     0.762000000    -4.058000000
O    -3.550000000     1.696000000    -2.362000000
