14
-84.72059
C    -2.472000000     0.293000000    -0.701000000
H    -3.334000000     0.938000000    -0.551000000
C    -1.270000000     0.656000000    -0.105000000
H    -1.222000000     1.614000000     0.406000000
C    -0.182000000    -0.254000000    -0.156000000
H     0.686000000    -0.031000000     0.451000000
C    -0.284000000    -1.499000000    -0.791000000
H     0.438000000    -2.298000000    -0.646000000
C    -1.555000000    -1.843000000    -1.311000000
H    -1.551000000    -2.876000000    -1.648000000
C    -2.623000000    -0.970000000    -1.307000000
C    -3.875000000    -1.271000000    -2.000000000
O    -4.337000000    -2.418000000    -2.127000000
O    -4.632000000    -0.352000000    -2.337000000
