14
-88.86366
C    -2.194000000     0.832000000     0.133000000
H    -2.822000000     1.688000000     0.370000000
C    -0.800000000     0.987000000     0.198000000
H    -0.321000000     1.917000000     0.495000000
C    -0.008000000    -0.161000000     0.016000000
H     1.040000000    -0.036000000     0.145000000
C    -0.604000000    -1.310000000    -0.450000000
H     0.014000000    -2.185000000    -0.638000000
C    -2.009000000    -1.411000000    -0.507000000
H    -2.416000000    -2.333000000    -0.913000000
C    -2.851000000    -0.360000000    -0.082000000
C    -4.322000000    -0.490000000    -0.195000000
O    -4.824000000    -1.561000000    -0.597000000
O    -5.021000000     0.501000000    -0.088000000
