14
-88.38061
C    -1.317000000     0.448000000    -1.974000000
H    -1.652000000     0.191000000    -2.976000000
C    -0.508000000    -0.434000000    -1.247000000
H    -0.237000000    -1.346000000    -1.772000000
C    -0.081000000    -0.135000000     0.043000000
H     0.680000000    -0.718000000     0.599000000
C    -0.653000000     1.014000000     0.669000000
H    -0.495000000     1.136000000     1.738000000
C    -1.499000000     1.908000000    -0.061000000
H    -1.928000000     2.788000000     0.411000000
C    -1.745000000     1.715000000    -1.413000000
C    -2.697000000     2.587000000    -2.184000000
O    -3.584000000     3.087000000    -1.527000000
O    -2.365000000     2.811000000    -3.315000000
