14
-82.18723
C    -2.486000000     0.952000000    -0.086000000
H    -3.099000000     1.780000000     0.260000000
C    -1.190000000     1.159000000     0.093000000
H    -0.871000000     1.984000000     0.725000000
C    -0.279000000     0.294000000    -0.496000000
H     0.828000000     0.503000000    -0.405000000
C    -0.730000000    -0.870000000    -1.139000000
H     0.105000000    -1.482000000    -1.470000000
C    -2.079000000    -1.116000000    -1.278000000
H    -2.436000000    -1.982000000    -1.830000000
C    -2.962000000    -0.184000000    -0.715000000
C    -4.396000000    -0.343000000    -1.013000000
O    -4.844000000    -1.353000000    -1.588000000
O    -5.038000000     0.693000000    -0.963000000
