14
-88.19830
C    -1.612000000     0.628000000     0.931000000
H    -2.190000000     1.193000000     1.657000000
C    -0.235000000     0.627000000     1.028000000
H     0.248000000     1.192000000     1.821000000
C     0.528000000    -0.058000000     0.096000000
H     1.729000000    -0.041000000     0.100000000
C    -0.106000000    -0.801000000    -0.858000000
H     0.548000000    -1.233000000    -1.611000000
C    -1.539000000    -0.884000000    -0.949000000
H    -2.111000000    -1.515000000    -1.625000000
C    -2.296000000    -0.171000000    -0.041000000
C    -3.792000000     0.063000000    -0.176000000
O    -4.274000000     0.121000000    -1.312000000
O    -4.502000000     0.151000000     0.829000000
