14
-80.01333
C    -0.899000000    -0.220000000    -1.848000000
H    -0.979000000    -0.828000000    -2.746000000
C     0.091000000    -0.548000000    -0.972000000
H     0.762000000    -1.366000000    -1.221000000
C     0.283000000     0.121000000     0.256000000
H     0.962000000    -0.291000000     0.946000000
C    -0.502000000     1.216000000     0.524000000
H    -0.444000000     1.720000000     1.485000000
C    -1.461000000     1.642000000    -0.409000000
H    -2.042000000     2.545000000    -0.244000000
C    -1.707000000     0.913000000    -1.551000000
C    -2.796000000     1.292000000    -2.566000000
O    -3.770000000     1.923000000    -2.233000000
O    -2.573000000     1.231000000    -3.715000000
