14
-87.96885
C    -2.264000000     0.065000000     0.865000000
H    -3.145000000    -0.090000000     1.481000000
C    -1.039000000    -0.355000000     1.329000000
H    -0.999000000    -0.791000000     2.324000000
C     0.107000000    -0.196000000     0.543000000
H     1.141000000    -0.563000000     0.847000000
C     0.065000000     0.482000000    -0.655000000
H     0.923000000     0.645000000    -1.302000000
C    -1.172000000     0.921000000    -1.099000000
H    -1.303000000     1.470000000    -2.028000000
C    -2.310000000     0.718000000    -0.349000000
C    -3.653000000     1.185000000    -0.806000000
O    -3.841000000     1.094000000    -1.997000000
O    -4.545000000     1.434000000    -0.031000000
