14
-77.92237
C    -1.853000000    -0.377000000     0.577000000
H    -2.479000000    -0.880000000     1.310000000
C    -0.454000000    -0.548000000     0.591000000
H     0.011000000    -1.039000000     1.441000000
C     0.379000000     0.101000000    -0.358000000
H     1.409000000    -0.029000000    -0.387000000
C    -0.272000000     0.834000000    -1.380000000
H     0.113000000     1.282000000    -2.293000000
C    -1.677000000     1.023000000    -1.270000000
H    -2.183000000     1.603000000    -2.036000000
C    -2.513000000     0.526000000    -0.286000000
C    -4.006000000     0.610000000    -0.350000000
O    -4.573000000     1.431000000    -1.040000000
O    -4.726000000    -0.152000000     0.224000000
