14
-90.24684
C    -2.143000000     0.201000000     0.402000000
H    -2.833000000     0.085000000     1.234000000
C    -0.763000000    -0.021000000     0.510000000
H    -0.323000000    -0.472000000     1.396000000
C     0.056000000     0.315000000    -0.619000000
H     1.178000000     0.121000000    -0.534000000
C    -0.489000000     0.857000000    -1.784000000
H     0.130000000     1.123000000    -2.637000000
C    -1.903000000     1.088000000    -1.811000000
H    -2.384000000     1.562000000    -2.663000000
C    -2.715000000     0.806000000    -0.718000000
C    -4.235000000     1.092000000    -0.736000000
O    -4.728000000     1.677000000    -1.697000000
O    -4.873000000     0.362000000     0.009000000
