14
-82.82387
C    -1.487000000    -0.598000000     0.950000000
H    -2.013000000    -1.000000000     1.812000000
C    -0.126000000    -0.356000000     1.112000000
H     0.368000000    -0.721000000     2.009000000
C     0.684000000     0.200000000     0.136000000
H     1.821000000     0.153000000     0.188000000
C     0.120000000     0.351000000    -1.143000000
H     0.743000000     0.745000000    -1.941000000
C    -1.291000000     0.217000000    -1.272000000
H    -1.710000000     0.591000000    -2.203000000
C    -2.097000000    -0.193000000    -0.266000000
C    -3.517000000    -0.324000000    -0.510000000
O    -3.943000000    -0.237000000    -1.665000000
O    -4.253000000    -0.742000000     0.393000000
