14
-84.47182
C    -2.110000000     0.561000000     0.140000000
H    -2.682000000     0.905000000     0.998000000
C    -0.687000000     0.495000000     0.136000000
H    -0.087000000     0.611000000     1.035000000
C    -0.023000000     0.072000000    -1.066000000
H     1.017000000    -0.184000000    -1.025000000
C    -0.700000000    -0.142000000    -2.226000000
H    -0.168000000    -0.422000000    -3.131000000
C    -2.078000000    -0.025000000    -2.230000000
H    -2.612000000    -0.331000000    -3.126000000
C    -2.809000000     0.271000000    -1.052000000
C    -4.325000000     0.226000000    -1.010000000
O    -4.962000000    -0.174000000    -1.961000000
O    -4.952000000     0.560000000    -0.048000000
