14
-86.07341
C    -2.410000000    -0.800000000    -0.120000000
H    -2.963000000    -1.153000000     0.747000000
C    -0.995000000    -0.562000000     0.104000000
H    -0.543000000    -0.656000000     1.088000000
C    -0.143000000    -0.194000000    -0.944000000
H     0.916000000    -0.104000000    -0.713000000
C    -0.656000000     0.052000000    -2.212000000
H    -0.073000000     0.415000000    -3.054000000
C    -1.993000000    -0.131000000    -2.408000000
H    -2.438000000     0.045000000    -3.384000000
C    -2.930000000    -0.536000000    -1.393000000
C    -4.346000000    -0.686000000    -1.776000000
O    -4.804000000    -0.247000000    -2.783000000
O    -5.003000000    -1.452000000    -1.067000000
