14
-83.00894
C    -1.484000000    -0.331000000     0.807000000
H    -1.754000000    -0.547000000     1.837000000
C    -0.183000000    -0.049000000     0.567000000
H     0.559000000    -0.107000000     1.359000000
C     0.341000000     0.097000000    -0.736000000
H     1.394000000     0.340000000    -0.870000000
C    -0.537000000     0.044000000    -1.822000000
H    -0.139000000     0.157000000    -2.827000000
C    -1.897000000    -0.157000000    -1.574000000
H    -2.602000000    -0.154000000    -2.401000000
C    -2.386000000    -0.285000000    -0.303000000
C    -3.788000000    -0.376000000     0.021000000
O    -4.643000000     0.063000000    -0.701000000
O    -4.186000000    -0.783000000     1.133000000
