14
-86.03299
C    -1.968000000    -0.107000000     1.028000000
H    -2.389000000    -0.239000000     2.021000000
C    -0.560000000     0.098000000     0.863000000
H     0.092000000     0.177000000     1.729000000
C    -0.008000000     0.070000000    -0.409000000
H     1.099000000     0.202000000    -0.598000000
C    -0.867000000    -0.002000000    -1.511000000
H    -0.435000000     0.047000000    -2.507000000
C    -2.233000000    -0.124000000    -1.352000000
H    -2.893000000    -0.153000000    -2.215000000
C    -2.778000000    -0.268000000    -0.088000000
C    -4.256000000    -0.638000000     0.176000000
O    -5.086000000    -0.752000000    -0.714000000
O    -4.609000000    -1.133000000     1.249000000
