14
-88.46124
C    -2.173000000    -0.231000000     0.949000000
H    -2.846000000    -0.284000000     1.801000000
C    -0.772000000    -0.256000000     1.203000000
H    -0.358000000    -0.297000000     2.207000000
C     0.132000000    -0.257000000     0.132000000
H     1.232000000    -0.222000000     0.277000000
C    -0.377000000    -0.232000000    -1.161000000
H     0.347000000    -0.316000000    -1.967000000
C    -1.824000000    -0.181000000    -1.415000000
H    -2.322000000    -0.209000000    -2.380000000
C    -2.698000000    -0.207000000    -0.334000000
C    -4.219000000    -0.128000000    -0.524000000
O    -4.689000000     0.323000000    -1.541000000
O    -4.974000000    -0.598000000     0.325000000
