14
-74.81821
C    -1.039000000     0.121000000    -2.066000000
H    -1.300000000    -0.190000000    -3.074000000
C    -0.124000000    -0.543000000    -1.323000000
H     0.371000000    -1.416000000    -1.740000000
C     0.122000000    -0.096000000    -0.041000000
H     0.894000000    -0.614000000     0.599000000
C    -0.616000000     0.991000000     0.450000000
H    -0.351000000     1.251000000     1.472000000
C    -1.575000000     1.605000000    -0.264000000
H    -2.168000000     2.384000000     0.207000000
C    -1.770000000     1.233000000    -1.562000000
C    -2.760000000     1.946000000    -2.496000000
O    -3.334000000     2.947000000    -2.199000000
O    -3.010000000     1.504000000    -3.549000000
