14
-80.12120
C    -1.020000000    -0.044000000     1.249000000
H    -1.139000000     0.151000000     2.312000000
C     0.132000000     0.350000000     0.585000000
H     0.973000000     0.799000000     1.107000000
C     0.313000000     0.212000000    -0.766000000
H     1.205000000     0.572000000    -1.277000000
C    -0.665000000    -0.361000000    -1.563000000
H    -0.523000000    -0.479000000    -2.634000000
C    -1.818000000    -0.828000000    -0.940000000
H    -2.535000000    -1.275000000    -1.626000000
C    -2.023000000    -0.676000000     0.470000000
C    -3.305000000    -1.119000000     1.197000000
O    -4.144000000    -1.508000000     0.501000000
O    -3.320000000    -1.288000000     2.388000000
