14
-91.82512
C    -1.885000000    -0.675000000     0.994000000
H    -2.147000000    -0.745000000     2.046000000
C    -0.625000000    -0.200000000     0.626000000
H     0.145000000     0.007000000     1.364000000
C    -0.228000000    -0.067000000    -0.722000000
H     0.850000000     0.238000000    -1.001000000
C    -1.148000000    -0.419000000    -1.684000000
H    -0.908000000    -0.478000000    -2.743000000
C    -2.449000000    -0.772000000    -1.329000000
H    -3.127000000    -0.988000000    -2.151000000
C    -2.806000000    -0.954000000     0.023000000
C    -4.194000000    -1.526000000     0.431000000
O    -4.913000000    -1.872000000    -0.500000000
O    -4.604000000    -1.456000000     1.592000000
