14
-83.47345
C    -1.459000000    -0.511000000     1.536000000
H    -1.670000000    -0.778000000     2.569000000
C    -0.244000000     0.021000000     1.101000000
H     0.506000000     0.159000000     1.875000000
C     0.065000000     0.349000000    -0.171000000
H     0.964000000     0.949000000    -0.449000000
C    -0.885000000     0.002000000    -1.177000000
H    -0.587000000     0.187000000    -2.206000000
C    -2.107000000    -0.513000000    -0.821000000
H    -2.766000000    -0.841000000    -1.622000000
C    -2.451000000    -0.718000000     0.557000000
C    -3.908000000    -1.057000000     0.913000000
O    -4.664000000    -1.277000000     0.010000000
O    -4.265000000    -0.907000000     2.023000000
