14
-76.22015
C    -1.525000000    -2.213000000    -0.063000000
H    -1.625000000    -3.265000000    -0.315000000
C    -0.364000000    -1.554000000    -0.418000000
H     0.490000000    -1.983000000    -0.937000000
C    -0.388000000    -0.159000000    -0.403000000
H     0.508000000     0.413000000    -0.745000000
C    -1.398000000     0.517000000     0.211000000
H    -1.413000000     1.603000000     0.240000000
C    -2.448000000    -0.176000000     0.746000000
H    -3.202000000     0.483000000     1.170000000
C    -2.571000000    -1.560000000     0.539000000
C    -3.880000000    -2.213000000     0.806000000
O    -4.842000000    -1.521000000     0.958000000
O    -4.080000000    -3.369000000     0.515000000
