14
-86.69933
C    -1.397000000     0.043000000     0.539000000
H    -1.794000000     0.046000000     1.550000000
C    -0.021000000     0.038000000     0.280000000
H     0.718000000    -0.008000000     1.076000000
C     0.475000000     0.212000000    -0.973000000
H     1.519000000     0.331000000    -1.179000000
C    -0.413000000     0.359000000    -2.061000000
H    -0.135000000     0.487000000    -3.104000000
C    -1.795000000     0.430000000    -1.789000000
H    -2.436000000     0.612000000    -2.648000000
C    -2.276000000     0.300000000    -0.532000000
C    -3.720000000     0.460000000    -0.303000000
O    -4.435000000     0.868000000    -1.198000000
O    -4.259000000     0.263000000     0.797000000
