14
-86.09190
C    -1.766000000    -1.892000000    -0.463000000
H    -1.991000000    -2.940000000    -0.645000000
C    -0.440000000    -1.431000000    -0.343000000
H     0.379000000    -2.124000000    -0.519000000
C    -0.169000000    -0.154000000     0.133000000
H     0.857000000     0.225000000     0.211000000
C    -1.224000000     0.699000000     0.404000000
H    -1.115000000     1.739000000     0.700000000
C    -2.535000000     0.319000000     0.226000000
H    -3.342000000     1.024000000     0.406000000
C    -2.847000000    -0.983000000    -0.207000000
C    -4.272000000    -1.325000000    -0.311000000
O    -5.164000000    -0.558000000    -0.053000000
O    -4.575000000    -2.437000000    -0.688000000
