14
-88.34585
C    -1.585000000    -1.643000000    -1.766000000
H    -1.794000000    -2.475000000    -2.434000000
C    -0.328000000    -1.530000000    -1.156000000
H     0.439000000    -2.285000000    -1.309000000
C    -0.050000000    -0.433000000    -0.337000000
H     0.943000000    -0.404000000     0.064000000
C    -0.987000000     0.614000000    -0.130000000
H    -0.765000000     1.531000000     0.409000000
C    -2.279000000     0.415000000    -0.795000000
H    -3.051000000     1.180000000    -0.788000000
C    -2.530000000    -0.620000000    -1.667000000
C    -3.733000000    -0.676000000    -2.570000000
O    -4.607000000     0.135000000    -2.456000000
O    -3.778000000    -1.573000000    -3.404000000
