14
-84.31175
C    -2.610000000    -2.267000000    -0.948000000
H    -2.638000000    -3.245000000    -1.421000000
C    -1.359000000    -1.656000000    -0.848000000
H    -0.422000000    -2.130000000    -1.131000000
C    -1.210000000    -0.350000000    -0.352000000
H    -0.215000000     0.117000000    -0.310000000
C    -2.312000000     0.231000000     0.313000000
H    -2.129000000     1.199000000     0.773000000
C    -3.548000000    -0.362000000     0.321000000
H    -4.414000000     0.177000000     0.697000000
C    -3.709000000    -1.683000000    -0.331000000
C    -5.095000000    -2.319000000    -0.287000000
O    -6.082000000    -1.845000000     0.270000000
O    -5.328000000    -3.387000000    -0.891000000
