14
-87.59814
C    -1.011000000     0.524000000    -2.645000000
H    -1.113000000     0.377000000    -3.717000000
C    -0.385000000    -0.489000000    -1.884000000
H     0.143000000    -1.313000000    -2.358000000
C    -0.136000000    -0.320000000    -0.523000000
H     0.348000000    -1.113000000     0.182000000
C    -0.606000000     0.842000000     0.071000000
H    -0.485000000     0.938000000     1.147000000
C    -1.393000000     1.724000000    -0.638000000
H    -1.867000000     2.537000000    -0.094000000
C    -1.656000000     1.594000000    -2.019000000
C    -2.460000000     2.605000000    -2.703000000
O    -2.826000000     3.595000000    -2.087000000
O    -2.757000000     2.485000000    -3.925000000
