14
-83.77394
C    -0.566000000     0.424000000    -2.143000000
H    -0.003000000     0.914000000    -2.934000000
C     0.006000000     0.127000000    -0.944000000
H     1.010000000     0.461000000    -0.693000000
C    -0.709000000    -0.643000000    -0.018000000
H    -0.264000000    -0.903000000     0.889000000
C    -2.000000000    -1.054000000    -0.328000000
H    -2.586000000    -1.615000000     0.395000000
C    -2.503000000    -0.859000000    -1.608000000
H    -3.458000000    -1.262000000    -1.936000000
C    -1.818000000    -0.063000000    -2.535000000
C    -2.405000000     0.382000000    -3.809000000
O    -3.178000000    -0.289000000    -4.436000000
O    -2.383000000     1.590000000    -4.018000000
