14
-77.18463
C    -0.945000000     0.068000000    -1.893000000
H    -0.728000000     0.162000000    -2.954000000
C     0.057000000     0.229000000    -0.938000000
H     1.070000000     0.488000000    -1.233000000
C    -0.198000000    -0.215000000     0.382000000
H     0.606000000    -0.365000000     1.147000000
C    -1.380000000    -0.690000000     0.797000000
H    -1.586000000    -1.027000000     1.809000000
C    -2.433000000    -0.625000000    -0.127000000
H    -3.429000000    -0.766000000     0.285000000
C    -2.248000000    -0.277000000    -1.495000000
C    -3.372000000    -0.304000000    -2.425000000
O    -4.348000000    -1.009000000    -2.319000000
O    -3.441000000     0.612000000    -3.208000000
