14
-79.51420
C    -0.426000000     0.120000000    -2.146000000
H    -0.362000000    -0.137000000    -3.200000000
C     0.268000000    -0.644000000    -1.186000000
H     0.782000000    -1.557000000    -1.476000000
C     0.204000000    -0.331000000     0.109000000
H     0.597000000    -1.062000000     0.766000000
C    -0.389000000     0.916000000     0.468000000
H    -0.400000000     1.254000000     1.501000000
C    -0.924000000     1.785000000    -0.463000000
H    -1.287000000     2.745000000    -0.105000000
C    -0.850000000     1.409000000    -1.820000000
C    -1.571000000     2.244000000    -2.854000000
O    -1.956000000     3.395000000    -2.608000000
O    -1.559000000     1.949000000    -4.027000000
