14
-86.08448
C    -0.073000000     0.615000000    -1.957000000
H     0.356000000     1.152000000    -2.799000000
C     0.584000000     0.625000000    -0.759000000
H     1.531000000     1.155000000    -0.695000000
C     0.063000000    -0.026000000     0.301000000
H     0.544000000    -0.067000000     1.286000000
C    -1.101000000    -0.756000000     0.174000000
H    -1.536000000    -1.164000000     1.083000000
C    -1.750000000    -0.796000000    -1.043000000
H    -2.706000000    -1.309000000    -1.109000000
C    -1.229000000    -0.030000000    -2.102000000
C    -2.022000000     0.086000000    -3.399000000
O    -3.107000000    -0.518000000    -3.488000000
O    -1.731000000     0.845000000    -4.308000000
