14
-86.25381
C    -0.961000000     0.615000000    -2.162000000
H    -0.822000000     1.220000000    -3.054000000
C    -0.018000000     0.809000000    -1.134000000
H     0.828000000     1.489000000    -1.203000000
C    -0.168000000     0.127000000     0.050000000
H     0.585000000     0.277000000     0.849000000
C    -1.188000000    -0.779000000     0.278000000
H    -1.347000000    -1.288000000     1.225000000
C    -2.082000000    -1.015000000    -0.762000000
H    -2.894000000    -1.716000000    -0.585000000
C    -2.041000000    -0.301000000    -1.971000000
C    -3.197000000    -0.447000000    -2.903000000
O    -4.235000000    -0.928000000    -2.574000000
O    -3.133000000     0.205000000    -3.944000000
