14
-79.65865
C    -0.060000000     0.545000000    -1.859000000
H     0.556000000     1.049000000    -2.600000000
C     0.520000000     0.178000000    -0.621000000
H     1.584000000     0.333000000    -0.462000000
C    -0.270000000    -0.394000000     0.374000000
H     0.032000000    -0.605000000     1.363000000
C    -1.614000000    -0.505000000     0.134000000
H    -2.275000000    -0.857000000     0.923000000
C    -2.158000000    -0.464000000    -1.155000000
H    -3.202000000    -0.750000000    -1.252000000
C    -1.346000000     0.180000000    -2.158000000
C    -1.949000000     0.583000000    -3.440000000
O    -3.088000000     0.282000000    -3.630000000
O    -1.450000000     1.454000000    -4.166000000
