14
-78.76002
C    -0.284000000     0.834000000    -2.100000000
H     0.208000000     1.367000000    -2.909000000
C     0.465000000     0.363000000    -1.002000000
H     1.534000000     0.555000000    -0.958000000
C    -0.182000000    -0.400000000    -0.024000000
H     0.356000000    -0.951000000     0.746000000
C    -1.561000000    -0.659000000    -0.083000000
H    -2.115000000    -1.152000000     0.712000000
C    -2.254000000    -0.010000000    -1.065000000
H    -3.335000000     0.037000000    -0.961000000
C    -1.693000000     0.733000000    -2.099000000
C    -2.551000000     1.320000000    -3.125000000
O    -3.671000000     1.554000000    -2.825000000
O    -2.120000000     1.555000000    -4.194000000
