14
-87.59706
C    -0.873000000     2.155000000    -1.860000000
H    -0.962000000     3.042000000    -2.482000000
C     0.286000000     1.736000000    -1.233000000
H     1.207000000     2.292000000    -1.392000000
C     0.311000000     0.632000000    -0.378000000
H     1.131000000     0.547000000     0.378000000
C    -0.794000000    -0.132000000    -0.256000000
H    -0.727000000    -1.012000000     0.379000000
C    -1.988000000     0.244000000    -0.891000000
H    -2.855000000    -0.403000000    -0.788000000
C    -2.024000000     1.355000000    -1.709000000
C    -3.240000000     1.658000000    -2.482000000
O    -4.163000000     0.852000000    -2.489000000
O    -3.311000000     2.663000000    -3.152000000
