14
-79.81566
C    -1.839000000     0.395000000    -2.353000000
H    -2.045000000     0.400000000    -3.420000000
C    -0.545000000     0.317000000    -1.775000000
H     0.314000000     0.087000000    -2.401000000
C    -0.260000000     0.456000000    -0.465000000
H     0.772000000     0.368000000    -0.116000000
C    -1.364000000     0.665000000     0.381000000
H    -1.224000000     0.704000000     1.458000000
C    -2.591000000     0.848000000    -0.108000000
H    -3.414000000     1.002000000     0.585000000
C    -2.847000000     0.760000000    -1.487000000
C    -4.245000000     0.968000000    -2.063000000
O    -5.280000000     0.990000000    -1.403000000
O    -4.350000000     1.211000000    -3.212000000
