14
-89.47696
C    -2.080000000     0.286000000    -1.531000000
H    -2.403000000    -0.025000000    -2.521000000
C    -0.784000000    -0.011000000    -1.215000000
H    -0.220000000    -0.665000000    -1.876000000
C    -0.225000000     0.488000000    -0.064000000
H     0.810000000     0.247000000     0.124000000
C    -0.954000000     1.305000000     0.825000000
H    -0.479000000     1.828000000     1.651000000
C    -2.272000000     1.473000000     0.559000000
H    -2.871000000     2.074000000     1.238000000
C    -2.913000000     0.955000000    -0.612000000
C    -4.339000000     1.219000000    -0.906000000
O    -5.021000000     1.856000000    -0.117000000
O    -4.829000000     0.838000000    -1.968000000
