14
-84.69121
C    -0.141000000     0.519000000    -2.288000000
H     0.196000000     0.034000000    -3.201000000
C     0.148000000    -0.099000000    -1.070000000
H     0.623000000    -1.074000000    -1.147000000
C    -0.101000000     0.500000000     0.167000000
H     0.161000000    -0.010000000     1.098000000
C    -0.882000000     1.667000000     0.181000000
H    -1.174000000     2.134000000     1.118000000
C    -1.351000000     2.190000000    -1.063000000
H    -2.115000000     2.946000000    -0.900000000
C    -0.926000000     1.676000000    -2.321000000
C    -1.717000000     2.078000000    -3.485000000
O    -2.736000000     2.778000000    -3.293000000
O    -1.488000000     1.643000000    -4.588000000
