14
-90.06482
C    -1.848000000     0.409000000    -1.513000000
H    -2.385000000     0.171000000    -2.428000000
C    -0.885000000    -0.517000000    -1.100000000
H    -0.745000000    -1.484000000    -1.577000000
C    -0.205000000    -0.227000000     0.079000000
H     0.508000000    -0.909000000     0.440000000
C    -0.429000000     0.947000000     0.789000000
H     0.205000000     1.131000000     1.653000000
C    -1.470000000     1.859000000     0.386000000
H    -1.781000000     2.617000000     1.101000000
C    -2.226000000     1.541000000    -0.740000000
C    -3.343000000     2.450000000    -1.178000000
O    -3.622000000     3.435000000    -0.500000000
O    -4.143000000     2.017000000    -2.034000000
