14
-83.51881
C    -1.768000000     0.629000000    -1.195000000
H    -2.434000000     0.266000000    -1.973000000
C    -0.683000000    -0.271000000    -0.942000000
H    -0.673000000    -1.204000000    -1.501000000
C     0.139000000    -0.026000000     0.129000000
H     0.882000000    -0.729000000     0.391000000
C    -0.037000000     1.106000000     0.975000000
H     0.656000000     1.314000000     1.786000000
C    -1.120000000     1.955000000     0.811000000
H    -1.313000000     2.830000000     1.426000000
C    -1.977000000     1.733000000    -0.299000000
C    -3.230000000     2.596000000    -0.490000000
O    -3.238000000     3.685000000     0.095000000
O    -3.845000000     2.404000000    -1.506000000
