14
-89.88298
C    -2.272000000     0.084000000    -0.871000000
H    -2.856000000    -0.607000000    -1.473000000
C    -0.927000000    -0.196000000    -0.825000000
H    -0.493000000    -1.141000000    -1.141000000
C    -0.042000000     0.818000000    -0.337000000
H     1.038000000     0.642000000    -0.348000000
C    -0.555000000     2.067000000     0.042000000
H     0.102000000     2.846000000     0.419000000
C    -1.941000000     2.287000000     0.022000000
H    -2.391000000     3.179000000     0.450000000
C    -2.824000000     1.274000000    -0.415000000
C    -4.288000000     1.654000000    -0.665000000
O    -4.627000000     2.803000000    -0.350000000
O    -5.036000000     0.982000000    -1.363000000
