14
-77.69661
C    -2.378000000     0.588000000     0.238000000
H    -3.181000000    -0.058000000    -0.110000000
C    -1.149000000    -0.042000000     0.541000000
H    -1.088000000    -1.118000000     0.396000000
C    -0.114000000     0.671000000     0.980000000
H     0.831000000     0.045000000     1.195000000
C    -0.209000000     2.055000000     1.164000000
H     0.564000000     2.660000000     1.632000000
C    -1.356000000     2.677000000     0.820000000
H    -1.570000000     3.665000000     1.220000000
C    -2.499000000     1.997000000     0.405000000
C    -3.881000000     2.607000000     0.246000000
O    -3.945000000     3.799000000     0.317000000
O    -4.770000000     1.967000000    -0.292000000
