14
-84.98441
C    -2.260000000    -0.326000000    -1.440000000
H    -2.739000000    -0.733000000    -2.327000000
C    -0.901000000    -0.545000000    -1.212000000
H    -0.394000000    -1.232000000    -1.884000000
C    -0.270000000     0.077000000    -0.091000000
H     0.732000000    -0.122000000     0.126000000
C    -1.039000000     0.981000000     0.715000000
H    -0.489000000     1.536000000     1.470000000
C    -2.335000000     1.217000000     0.388000000
H    -2.831000000     1.945000000     1.024000000
C    -3.057000000     0.612000000    -0.665000000
C    -4.495000000     0.952000000    -1.054000000
O    -5.286000000     1.557000000    -0.311000000
O    -4.859000000     0.678000000    -2.163000000
