14
-81.62489
C    -2.936000000     0.800000000    -1.699000000
H    -3.402000000     0.864000000    -2.679000000
C    -1.715000000     0.064000000    -1.588000000
H    -1.313000000    -0.495000000    -2.428000000
C    -1.070000000    -0.064000000    -0.337000000
H    -0.252000000    -0.739000000    -0.261000000
C    -1.617000000     0.581000000     0.765000000
H    -1.190000000     0.314000000     1.728000000
C    -2.709000000     1.475000000     0.638000000
H    -3.042000000     2.071000000     1.485000000
C    -3.366000000     1.531000000    -0.605000000
C    -4.505000000     2.572000000    -0.711000000
O    -5.039000000     3.065000000     0.213000000
O    -4.757000000     3.035000000    -1.800000000
