14
-82.43966
C    -0.166000000     3.056000000    -1.892000000
H    -0.026000000     4.130000000    -1.983000000
C     0.598000000     2.316000000    -0.945000000
H     1.411000000     2.741000000    -0.363000000
C     0.363000000     0.937000000    -0.911000000
H     0.979000000     0.380000000    -0.190000000
C    -0.597000000     0.309000000    -1.631000000
H    -0.737000000    -0.769000000    -1.627000000
C    -1.395000000     1.062000000    -2.510000000
H    -2.280000000     0.676000000    -3.009000000
C    -1.201000000     2.438000000    -2.696000000
C    -2.153000000     3.319000000    -3.586000000
O    -3.246000000     2.847000000    -3.749000000
O    -1.921000000     4.469000000    -3.719000000
