14
-87.61759
C     0.241000000     2.441000000    -1.977000000
H     0.451000000     3.430000000    -2.376000000
C     1.229000000     1.800000000    -1.193000000
H     2.248000000     2.178000000    -1.167000000
C     0.915000000     0.662000000    -0.502000000
H     1.609000000     0.177000000     0.126000000
C    -0.324000000     0.039000000    -0.612000000
H    -0.398000000    -0.928000000    -0.120000000
C    -1.320000000     0.625000000    -1.383000000
H    -2.295000000     0.150000000    -1.466000000
C    -1.050000000     1.878000000    -2.019000000
C    -2.043000000     2.593000000    -2.842000000
O    -3.123000000     2.086000000    -2.931000000
O    -1.766000000     3.654000000    -3.357000000
