14
-87.50659
C    -1.045000000    -1.950000000    -0.104000000
H    -0.698000000    -2.824000000    -0.649000000
C    -0.104000000    -0.997000000     0.226000000
H     0.937000000    -1.063000000    -0.082000000
C    -0.417000000     0.141000000     0.977000000
H     0.300000000     0.861000000     1.126000000
C    -1.773000000     0.318000000     1.414000000
H    -2.093000000     1.174000000     2.003000000
C    -2.769000000    -0.641000000     0.968000000
H    -3.789000000    -0.600000000     1.341000000
C    -2.330000000    -1.756000000     0.334000000
C    -3.364000000    -2.873000000     0.102000000
O    -4.397000000    -2.902000000     0.828000000
O    -3.252000000    -3.746000000    -0.812000000
