14
-78.71456
C    -1.725000000    -1.545000000     0.084000000
H    -2.099000000    -2.350000000     0.711000000
C    -0.451000000    -1.036000000     0.257000000
H     0.204000000    -1.478000000     1.004000000
C     0.058000000     0.124000000    -0.428000000
H     1.098000000     0.563000000    -0.329000000
C    -0.800000000     0.766000000    -1.324000000
H    -0.421000000     1.707000000    -1.716000000
C    -2.118000000     0.285000000    -1.584000000
H    -2.749000000     0.872000000    -2.246000000
C    -2.644000000    -0.801000000    -0.737000000
C    -4.078000000    -1.165000000    -0.712000000
O    -4.841000000    -0.355000000    -1.230000000
O    -4.527000000    -2.110000000    -0.142000000
