14
-85.31735
C     0.107000000     2.057000000    -1.800000000
H     0.906000000     2.723000000    -2.114000000
C     0.316000000     1.303000000    -0.613000000
H     1.220000000     1.439000000    -0.026000000
C    -0.703000000     0.438000000    -0.162000000
H    -0.465000000    -0.223000000     0.666000000
C    -1.879000000     0.365000000    -0.886000000
H    -2.714000000    -0.261000000    -0.582000000
C    -2.137000000     1.218000000    -1.933000000
H    -3.076000000     1.259000000    -2.480000000
C    -1.137000000     2.032000000    -2.478000000
C    -1.422000000     2.924000000    -3.633000000
O    -2.429000000     2.784000000    -4.358000000
O    -0.860000000     3.982000000    -3.714000000
