14
-80.78257
C    -0.012000000     2.548000000    -1.476000000
H     0.500000000     3.372000000    -1.967000000
C     0.821000000     1.560000000    -0.923000000
H     1.900000000     1.662000000    -1.011000000
C     0.180000000     0.529000000    -0.197000000
H     0.723000000    -0.089000000     0.507000000
C    -1.203000000     0.414000000    -0.242000000
H    -1.676000000    -0.454000000     0.211000000
C    -1.958000000     1.307000000    -1.020000000
H    -3.037000000     1.205000000    -0.934000000
C    -1.389000000     2.437000000    -1.608000000
C    -2.245000000     3.432000000    -2.182000000
O    -3.419000000     3.166000000    -2.254000000
O    -1.831000000     4.531000000    -2.410000000
