14
-86.83685
C    -0.269000000     2.993000000    -0.112000000
H     0.115000000     3.996000000    -0.276000000
C     0.573000000     1.912000000     0.062000000
H     1.647000000     2.046000000     0.160000000
C     0.078000000     0.628000000     0.322000000
H     0.875000000    -0.175000000     0.632000000
C    -1.235000000     0.395000000     0.435000000
H    -1.561000000    -0.636000000     0.541000000
C    -2.113000000     1.460000000     0.301000000
H    -3.148000000     1.156000000     0.430000000
C    -1.665000000     2.733000000    -0.042000000
C    -2.685000000     3.822000000    -0.273000000
O    -3.900000000     3.637000000    -0.063000000
O    -2.314000000     4.986000000    -0.590000000
