14
-84.80468
C    -0.983000000     1.703000000    -1.980000000
H    -0.399000000     2.084000000    -2.814000000
C    -0.505000000     0.769000000    -1.160000000
H     0.503000000     0.393000000    -1.319000000
C    -1.281000000     0.124000000    -0.194000000
H    -0.731000000    -0.627000000     0.402000000
C    -2.481000000     0.701000000     0.178000000
H    -2.995000000     0.324000000     1.059000000
C    -2.969000000     1.767000000    -0.623000000
H    -3.949000000     2.172000000    -0.386000000
C    -2.272000000     2.229000000    -1.760000000
C    -2.916000000     3.283000000    -2.636000000
O    -3.815000000     3.936000000    -2.212000000
O    -2.385000000     3.524000000    -3.700000000
