14
-86.19946
C     0.907000000     0.502000000    -2.009000000
H     1.420000000     0.480000000    -2.967000000
C     0.907000000    -0.610000000    -1.222000000
H     1.447000000    -1.485000000    -1.574000000
C     0.342000000    -0.665000000     0.023000000
H     0.574000000    -1.565000000     0.544000000
C    -0.337000000     0.450000000     0.510000000
H    -0.795000000     0.344000000     1.490000000
C    -0.514000000     1.542000000    -0.403000000
H    -1.188000000     2.315000000    -0.042000000
C     0.051000000     1.586000000    -1.665000000
C    -0.186000000     2.686000000    -2.684000000
O    -0.924000000     3.610000000    -2.352000000
O     0.226000000     2.585000000    -3.804000000
