14
-76.45860
C     0.161000000     1.326000000    -1.829000000
H     0.535000000     1.960000000    -2.628000000
C     1.057000000     0.458000000    -1.178000000
H     2.121000000     0.424000000    -1.400000000
C     0.667000000    -0.321000000    -0.129000000
H     1.317000000    -1.029000000     0.333000000
C    -0.586000000    -0.183000000     0.384000000
H    -0.873000000    -0.820000000     1.217000000
C    -1.561000000     0.634000000    -0.251000000
H    -2.601000000     0.716000000     0.054000000
C    -1.168000000     1.447000000    -1.346000000
C    -2.183000000     2.262000000    -2.116000000
O    -3.120000000     2.603000000    -1.531000000
O    -2.052000000     2.630000000    -3.258000000
