14
-78.61558
C     0.344000000     1.112000000    -1.365000000
H     1.004000000     1.672000000    -2.023000000
C     0.902000000     0.275000000    -0.439000000
H     1.981000000     0.151000000    -0.393000000
C     0.186000000    -0.422000000     0.523000000
H     0.615000000    -1.219000000     1.002000000
C    -1.193000000    -0.119000000     0.557000000
H    -1.826000000    -0.653000000     1.261000000
C    -1.816000000     0.564000000    -0.509000000
H    -2.899000000     0.639000000    -0.567000000
C    -1.037000000     1.194000000    -1.443000000
C    -1.686000000     2.085000000    -2.455000000
O    -2.868000000     2.269000000    -2.387000000
O    -1.038000000     2.608000000    -3.284000000
