14
-87.28646
C    -0.071000000     1.649000000    -1.484000000
H     0.546000000     2.237000000    -2.159000000
C     0.589000000     0.781000000    -0.571000000
H     1.676000000     0.772000000    -0.528000000
C    -0.190000000     0.048000000     0.368000000
H     0.283000000    -0.526000000     1.158000000
C    -1.587000000     0.227000000     0.307000000
H    -2.215000000    -0.351000000     0.982000000
C    -2.166000000     1.053000000    -0.623000000
H    -3.232000000     1.193000000    -0.462000000
C    -1.438000000     1.761000000    -1.516000000
C    -2.080000000     2.656000000    -2.548000000
O    -3.276000000     2.617000000    -2.790000000
O    -1.388000000     3.361000000    -3.325000000
