14
-71.88916
C    -0.152000000     1.559000000    -2.005000000
H     0.224000000     1.973000000    -2.937000000
C     0.777000000     0.905000000    -1.210000000
H     1.803000000     0.895000000    -1.568000000
C     0.370000000     0.121000000    -0.163000000
H     1.008000000    -0.540000000     0.467000000
C    -0.995000000     0.172000000     0.286000000
H    -1.248000000    -0.322000000     1.220000000
C    -1.905000000     0.897000000    -0.448000000
H    -2.939000000     0.942000000    -0.118000000
C    -1.484000000     1.537000000    -1.613000000
C    -2.475000000     2.297000000    -2.412000000
O    -3.359000000     2.862000000    -1.964000000
O    -2.411000000     2.289000000    -3.634000000
