14
-80.15812
C     0.445000000     0.890000000    -1.028000000
H     1.082000000     1.142000000    -1.873000000
C     0.628000000    -0.232000000    -0.265000000
H     1.538000000    -0.811000000    -0.402000000
C    -0.249000000    -0.613000000     0.757000000
H     0.041000000    -1.456000000     1.391000000
C    -1.430000000     0.061000000     0.898000000
H    -2.139000000    -0.391000000     1.586000000
C    -1.765000000     1.126000000     0.083000000
H    -2.651000000     1.648000000     0.438000000
C    -0.835000000     1.522000000    -0.878000000
C    -1.213000000     2.744000000    -1.657000000
O    -2.347000000     3.056000000    -1.841000000
O    -0.337000000     3.504000000    -2.030000000
