14
-83.08710
C     0.400000000     1.087000000    -2.098000000
H     1.147000000     0.946000000    -2.874000000
C     0.578000000     0.455000000    -0.862000000
H     1.430000000    -0.207000000    -0.726000000
C    -0.334000000     0.622000000     0.184000000
H    -0.162000000     0.032000000     1.074000000
C    -1.541000000     1.317000000    -0.130000000
H    -2.298000000     1.488000000     0.631000000
C    -1.722000000     1.969000000    -1.330000000
H    -2.584000000     2.619000000    -1.463000000
C    -0.691000000     1.927000000    -2.274000000
C    -0.829000000     2.652000000    -3.546000000
O    -1.877000000     3.294000000    -3.778000000
O    -0.005000000     2.708000000    -4.397000000
