14
-90.11150
C     1.079000000     1.198000000    -2.176000000
H     1.996000000     1.258000000    -2.756000000
C     0.948000000     0.179000000    -1.201000000
H     1.833000000    -0.340000000    -0.842000000
C    -0.341000000    -0.140000000    -0.720000000
H    -0.388000000    -0.908000000     0.038000000
C    -1.420000000     0.595000000    -1.083000000
H    -2.420000000     0.334000000    -0.745000000
C    -1.256000000     1.640000000    -1.928000000
H    -2.078000000     2.289000000    -2.220000000
C     0.000000000     2.059000000    -2.473000000
C     0.177000000     3.176000000    -3.461000000
O    -0.874000000     3.709000000    -3.816000000
O     1.282000000     3.422000000    -3.926000000
