14
-87.25590
C     1.049000000     1.436000000    -1.671000000
H     1.971000000     1.942000000    -1.400000000
C     0.880000000     0.225000000    -1.081000000
H     1.586000000    -0.139000000    -0.339000000
C    -0.272000000    -0.506000000    -1.306000000
H    -0.475000000    -1.413000000    -0.737000000
C    -1.287000000    -0.054000000    -2.141000000
H    -2.190000000    -0.649000000    -2.259000000
C    -1.203000000     1.254000000    -2.646000000
H    -2.090000000     1.576000000    -3.185000000
C    -0.005000000     1.989000000    -2.432000000
C     0.200000000     3.344000000    -3.080000000
O    -0.843000000     3.819000000    -3.472000000
O     1.275000000     3.915000000    -3.222000000
