14
-83.46456
C     1.448000000     1.613000000    -1.459000000
H     2.162000000     2.031000000    -2.165000000
C     1.782000000     0.357000000    -0.959000000
H     2.747000000    -0.078000000    -1.207000000
C     0.900000000    -0.405000000    -0.154000000
H     1.276000000    -1.408000000     0.185000000
C    -0.403000000     0.092000000     0.082000000
H    -1.128000000    -0.369000000     0.748000000
C    -0.688000000     1.375000000    -0.386000000
H    -1.679000000     1.727000000    -0.110000000
C     0.193000000     2.141000000    -1.111000000
C    -0.318000000     3.531000000    -1.595000000
O    -1.337000000     4.046000000    -1.212000000
O     0.268000000     4.184000000    -2.492000000
