14
-93.71310
C     0.997000000     0.972000000    -2.118000000
H     1.610000000     1.249000000    -2.971000000
C     1.483000000     0.024000000    -1.257000000
H     2.396000000    -0.507000000    -1.515000000
C     0.773000000    -0.321000000    -0.126000000
H     1.148000000    -1.099000000     0.550000000
C    -0.444000000     0.272000000     0.071000000
H    -1.083000000     0.056000000     0.923000000
C    -0.992000000     1.218000000    -0.836000000
H    -1.975000000     1.648000000    -0.658000000
C    -0.274000000     1.537000000    -1.980000000
C    -0.825000000     2.562000000    -2.928000000
O    -1.778000000     3.259000000    -2.558000000
O    -0.239000000     2.789000000    -3.992000000
