14
-80.14966
C    -0.019000000     1.452000000    -1.817000000
H     0.432000000     1.743000000    -2.762000000
C     0.603000000     0.410000000    -1.091000000
H     1.498000000    -0.082000000    -1.463000000
C    -0.078000000    -0.147000000    -0.005000000
H     0.218000000    -1.131000000     0.517000000
C    -1.173000000     0.524000000     0.494000000
H    -1.781000000    -0.017000000     1.215000000
C    -1.840000000     1.524000000    -0.230000000
H    -2.854000000     1.858000000    -0.024000000
C    -1.255000000     2.044000000    -1.371000000
C    -1.960000000     3.128000000    -2.106000000
O    -2.924000000     3.687000000    -1.656000000
O    -1.632000000     3.332000000    -3.251000000
