14
-85.59411
C     0.289000000     0.161000000    -1.583000000
H     1.108000000    -0.133000000    -2.234000000
C     0.056000000    -0.600000000    -0.450000000
H     0.570000000    -1.516000000    -0.171000000
C    -0.873000000    -0.165000000     0.472000000
H    -0.999000000    -0.603000000     1.533000000
C    -1.667000000     0.946000000     0.168000000
H    -2.405000000     1.260000000     0.902000000
C    -1.394000000     1.691000000    -1.012000000
H    -1.985000000     2.575000000    -1.237000000
C    -0.382000000     1.344000000    -1.849000000
C     0.024000000     2.094000000    -3.006000000
O    -0.414000000     3.255000000    -3.062000000
O     0.802000000     1.666000000    -3.833000000
