14
-87.60770
C    -1.108000000    -0.503000000    -1.262000000
H    -2.025000000    -1.070000000    -1.402000000
C    -0.372000000    -0.513000000    -0.102000000
H    -0.721000000    -1.101000000     0.743000000
C     0.725000000     0.319000000     0.002000000
H     1.295000000     0.160000000     0.920000000
C     1.130000000     1.129000000    -1.068000000
H     1.956000000     1.828000000    -0.962000000
C     0.310000000     1.185000000    -2.233000000
H     0.572000000     1.909000000    -3.000000000
C    -0.701000000     0.291000000    -2.361000000
C    -1.466000000     0.268000000    -3.665000000
O    -1.392000000     1.263000000    -4.439000000
O    -2.271000000    -0.601000000    -4.024000000
