14
-87.15176
C     0.779000000     0.916000000    -1.609000000
H     1.590000000     0.852000000    -2.330000000
C     0.517000000    -0.101000000    -0.665000000
H     1.311000000    -0.813000000    -0.455000000
C    -0.655000000    -0.068000000     0.102000000
H    -0.859000000    -0.826000000     0.855000000
C    -1.582000000     0.956000000    -0.123000000
H    -2.492000000     1.023000000     0.467000000
C    -1.340000000     1.943000000    -1.090000000
H    -2.088000000     2.725000000    -1.190000000
C    -0.213000000     1.900000000    -1.853000000
C    -0.090000000     2.914000000    -2.943000000
O    -0.882000000     3.793000000    -3.198000000
O     1.016000000     2.988000000    -3.484000000
