14
-79.25030
C     0.752000000     1.699000000    -2.602000000
H     1.459000000     2.185000000    -3.270000000
C     1.235000000     0.759000000    -1.739000000
H     2.280000000     0.472000000    -1.813000000
C     0.487000000     0.318000000    -0.697000000
H     0.943000000    -0.377000000     0.012000000
C    -0.843000000     0.724000000    -0.655000000
H    -1.479000000     0.316000000     0.126000000
C    -1.392000000     1.622000000    -1.579000000
H    -2.441000000     1.908000000    -1.555000000
C    -0.562000000     2.167000000    -2.536000000
C    -0.913000000     3.337000000    -3.383000000
O    -2.082000000     3.666000000    -3.466000000
O    -0.165000000     3.922000000    -4.083000000
