14
-85.51021
C    -0.611000000     1.274000000    -2.004000000
H    -0.029000000     1.207000000    -2.920000000
C    -0.302000000     0.453000000    -0.889000000
H     0.529000000    -0.245000000    -0.937000000
C    -1.099000000     0.626000000     0.239000000
H    -0.835000000     0.089000000     1.065000000
C    -2.137000000     1.537000000     0.261000000
H    -2.604000000     1.659000000     1.235000000
C    -2.552000000     2.201000000    -0.877000000
H    -3.428000000     2.844000000    -0.906000000
C    -1.708000000     2.136000000    -1.995000000
C    -1.883000000     3.157000000    -3.130000000
O    -2.828000000     3.895000000    -3.097000000
O    -1.013000000     3.337000000    -3.934000000
