14
-81.13037
C     0.767000000     0.561000000    -1.309000000
H     1.599000000     0.488000000    -2.005000000
C     0.524000000    -0.339000000    -0.311000000
H     1.014000000    -1.306000000    -0.397000000
C    -0.396000000    -0.128000000     0.660000000
H    -0.639000000    -0.894000000     1.342000000
C    -1.080000000     1.051000000     0.711000000
H    -1.769000000     1.216000000     1.536000000
C    -0.937000000     2.000000000    -0.268000000
H    -1.459000000     2.952000000    -0.206000000
C     0.035000000     1.777000000    -1.256000000
C     0.255000000     2.874000000    -2.326000000
O    -0.103000000     4.000000000    -2.174000000
O     0.772000000     2.647000000    -3.428000000
