14
-82.80418
C     0.083000000     1.643000000    -2.308000000
H     0.807000000     1.776000000    -3.108000000
C     0.263000000     0.595000000    -1.419000000
H     1.198000000     0.042000000    -1.463000000
C    -0.635000000     0.273000000    -0.417000000
H    -0.415000000    -0.443000000     0.318000000
C    -1.789000000     1.035000000    -0.193000000
H    -2.414000000     0.730000000     0.642000000
C    -2.031000000     2.042000000    -1.150000000
H    -3.029000000     2.471000000    -1.129000000
C    -1.111000000     2.364000000    -2.223000000
C    -1.476000000     3.427000000    -3.254000000
O    -2.466000000     4.043000000    -3.131000000
O    -0.595000000     3.773000000    -4.042000000
