14
-89.79992
C     0.712000000     1.007000000    -1.975000000
H     1.566000000     1.117000000    -2.639000000
C     0.782000000     0.201000000    -0.799000000
H     1.662000000    -0.370000000    -0.513000000
C    -0.289000000    -0.016000000     0.024000000
H    -0.163000000    -0.737000000     0.918000000
C    -1.448000000     0.760000000    -0.137000000
H    -2.236000000     0.833000000     0.608000000
C    -1.521000000     1.612000000    -1.282000000
H    -2.348000000     2.312000000    -1.372000000
C    -0.492000000     1.690000000    -2.240000000
C    -0.624000000     2.617000000    -3.384000000
O    -1.666000000     3.271000000    -3.403000000
O     0.193000000     2.551000000    -4.313000000
