14
-84.38518
C     0.710000000     0.519000000    -1.736000000
H     1.588000000     0.588000000    -2.373000000
C     0.797000000    -0.249000000    -0.545000000
H     1.635000000    -0.881000000    -0.263000000
C    -0.242000000    -0.301000000     0.314000000
H    -0.254000000    -0.850000000     1.245000000
C    -1.385000000     0.449000000    -0.042000000
H    -2.251000000     0.314000000     0.602000000
C    -1.442000000     1.231000000    -1.226000000
H    -2.329000000     1.831000000    -1.413000000
C    -0.361000000     1.367000000    -2.057000000
C    -0.350000000     2.302000000    -3.337000000
O    -1.333000000     2.952000000    -3.683000000
O     0.666000000     2.445000000    -3.968000000
