14
-86.22949
C     0.621000000     1.121000000    -1.719000000
H     1.435000000     1.137000000    -2.440000000
C     0.527000000     0.164000000    -0.696000000
H     1.365000000    -0.488000000    -0.463000000
C    -0.633000000     0.079000000     0.053000000
H    -0.717000000    -0.566000000     0.956000000
C    -1.641000000     0.962000000    -0.165000000
H    -2.521000000     0.947000000     0.473000000
C    -1.622000000     1.926000000    -1.120000000
H    -2.403000000     2.646000000    -1.352000000
C    -0.449000000     1.986000000    -1.956000000
C    -0.398000000     2.937000000    -3.105000000
O    -1.339000000     3.656000000    -3.333000000
O     0.626000000     3.051000000    -3.721000000
