14
-83.93316
C    -1.293000000    -0.501000000    -0.580000000
H    -2.260000000    -0.993000000    -0.649000000
C    -0.451000000    -0.660000000     0.527000000
H    -0.813000000    -1.285000000     1.340000000
C     0.800000000    -0.078000000     0.708000000
H     1.346000000    -0.213000000     1.682000000
C     1.414000000     0.573000000    -0.341000000
H     2.420000000     0.976000000    -0.254000000
C     0.656000000     0.662000000    -1.541000000
H     1.112000000     1.080000000    -2.435000000
C    -0.684000000     0.196000000    -1.632000000
C    -1.492000000     0.386000000    -2.935000000
O    -1.180000000     1.167000000    -3.782000000
O    -2.635000000    -0.066000000    -2.986000000
