14
-88.31797
C     0.608000000     2.301000000    -1.254000000
H     0.956000000     3.090000000    -1.915000000
C     1.086000000     0.953000000    -1.383000000
H     1.899000000     0.725000000    -2.067000000
C     0.591000000    -0.014000000    -0.541000000
H     1.012000000    -1.073000000    -0.601000000
C    -0.265000000     0.316000000     0.465000000
H    -0.555000000    -0.441000000     1.189000000
C    -0.688000000     1.586000000     0.665000000
H    -1.401000000     1.831000000     1.448000000
C    -0.245000000     2.620000000    -0.146000000
C    -0.915000000     3.952000000     0.044000000
O    -2.019000000     3.953000000     0.603000000
O    -0.399000000     5.042000000    -0.298000000
