14
-83.59023
C    -0.159000000     1.694000000    -1.349000000
H    -0.022000000     2.439000000    -2.129000000
C     0.830000000     0.762000000    -1.016000000
H     1.851000000     0.800000000    -1.388000000
C     0.504000000    -0.246000000    -0.158000000
H     1.241000000    -0.967000000     0.239000000
C    -0.785000000    -0.336000000     0.455000000
H    -0.960000000    -1.113000000     1.194000000
C    -1.735000000     0.679000000     0.192000000
H    -2.758000000     0.707000000     0.556000000
C    -1.418000000     1.618000000    -0.790000000
C    -2.464000000     2.640000000    -1.189000000
O    -3.375000000     2.879000000    -0.467000000
O    -2.276000000     3.391000000    -2.125000000
