14
-86.97079
C     0.367000000     2.599000000    -0.738000000
H     0.698000000     3.502000000    -1.244000000
C     1.115000000     1.414000000    -0.601000000
H     2.175000000     1.362000000    -0.833000000
C     0.561000000     0.312000000     0.048000000
H     1.135000000    -0.576000000     0.105000000
C    -0.797000000     0.302000000     0.393000000
H    -1.285000000    -0.613000000     0.718000000
C    -1.555000000     1.491000000     0.269000000
H    -2.614000000     1.468000000     0.516000000
C    -1.022000000     2.630000000    -0.330000000
C    -1.884000000     3.893000000    -0.566000000
O    -3.075000000     3.730000000    -0.699000000
O    -1.369000000     4.918000000    -0.948000000
