14
-84.62230
C     0.730000000     3.153000000    -1.470000000
H     0.893000000     3.893000000    -2.249000000
C     1.276000000     1.882000000    -1.520000000
H     2.042000000     1.764000000    -2.283000000
C     0.985000000     0.966000000    -0.547000000
H     1.486000000     0.038000000    -0.633000000
C     0.126000000     1.187000000     0.477000000
H    -0.046000000     0.438000000     1.247000000
C    -0.498000000     2.451000000     0.523000000
H    -1.297000000     2.546000000     1.253000000
C    -0.303000000     3.449000000    -0.485000000
C    -1.066000000     4.782000000    -0.606000000
O    -2.107000000     4.969000000     0.016000000
O    -0.731000000     5.639000000    -1.423000000
