14
-81.21647
C     0.079000000     2.240000000    -0.596000000
H     0.360000000     3.219000000    -0.976000000
C     1.089000000     1.237000000    -0.487000000
H     2.119000000     1.387000000    -0.802000000
C     0.725000000    -0.017000000    -0.014000000
H     1.441000000    -0.833000000     0.211000000
C    -0.566000000    -0.238000000     0.452000000
H    -0.723000000    -1.134000000     1.046000000
C    -1.570000000     0.728000000     0.282000000
H    -2.614000000     0.562000000     0.538000000
C    -1.285000000     1.963000000    -0.252000000
C    -2.287000000     3.050000000    -0.505000000
O    -3.456000000     2.757000000    -0.591000000
O    -2.095000000     4.258000000    -0.591000000
