14
-79.20508
C     0.387000000     2.312000000    -0.823000000
H     0.836000000     3.116000000    -1.400000000
C     0.920000000     1.058000000    -0.840000000
H     1.822000000     0.874000000    -1.418000000
C     0.326000000     0.026000000    -0.170000000
H     0.708000000    -0.983000000    -0.320000000
C    -0.848000000     0.253000000     0.560000000
H    -1.309000000    -0.631000000     0.994000000
C    -1.506000000     1.462000000     0.518000000
H    -2.407000000     1.715000000     1.070000000
C    -0.901000000     2.480000000    -0.241000000
C    -1.550000000     3.822000000    -0.399000000
O    -2.780000000     3.830000000    -0.248000000
O    -1.114000000     4.803000000    -0.914000000
