14
-74.30218
C    -0.189000000     2.671000000    -1.671000000
H    -0.068000000     3.285000000    -2.560000000
C     0.583000000     1.510000000    -1.240000000
H     1.449000000     1.191000000    -1.816000000
C     0.236000000     0.728000000    -0.106000000
H     0.800000000    -0.131000000     0.180000000
C    -0.877000000     0.974000000     0.547000000
H    -1.147000000     0.175000000     1.233000000
C    -1.615000000     2.145000000     0.314000000
H    -2.554000000     2.345000000     0.824000000
C    -1.347000000     2.942000000    -0.836000000
C    -2.322000000     3.970000000    -1.254000000
O    -3.341000000     4.059000000    -0.659000000
O    -2.028000000     4.836000000    -2.108000000
