14
-90.09608
C    -0.741000000     2.243000000    -1.790000000
H    -0.690000000     2.847000000    -2.692000000
C     0.167000000     1.185000000    -1.607000000
H     0.958000000     1.056000000    -2.341000000
C     0.010000000     0.276000000    -0.557000000
H     0.681000000    -0.554000000    -0.418000000
C    -1.042000000     0.464000000     0.308000000
H    -1.233000000    -0.216000000     1.135000000
C    -1.971000000     1.489000000     0.120000000
H    -2.887000000     1.551000000     0.702000000
C    -1.768000000     2.462000000    -0.900000000
C    -2.767000000     3.557000000    -1.207000000
O    -3.628000000     3.806000000    -0.418000000
O    -2.539000000     4.224000000    -2.187000000
