14
-85.53761
C    -0.895000000     2.077000000    -1.075000000
H    -0.519000000     2.930000000    -1.635000000
C    -0.182000000     0.857000000    -1.135000000
H     0.696000000     0.743000000    -1.765000000
C    -0.563000000    -0.212000000    -0.350000000
H    -0.011000000    -1.189000000    -0.365000000
C    -1.782000000    -0.096000000     0.402000000
H    -2.080000000    -0.987000000     0.949000000
C    -2.477000000     1.060000000     0.407000000
H    -3.346000000     1.214000000     1.043000000
C    -2.078000000     2.207000000    -0.263000000
C    -2.900000000     3.498000000    -0.261000000
O    -4.079000000     3.375000000     0.085000000
O    -2.547000000     4.397000000    -0.983000000
