14
-85.21588
C     0.188000000     3.129000000    -1.062000000
H     0.691000000     3.961000000    -1.546000000
C     1.015000000     1.992000000    -1.140000000
H     1.992000000     2.071000000    -1.611000000
C     0.647000000     0.814000000    -0.449000000
H     1.327000000    -0.040000000    -0.407000000
C    -0.540000000     0.823000000     0.299000000
H    -0.761000000    -0.045000000     0.914000000
C    -1.399000000     1.912000000     0.239000000
H    -2.288000000     1.822000000     0.859000000
C    -1.021000000     3.159000000    -0.362000000
C    -1.772000000     4.491000000    -0.139000000
O    -2.876000000     4.597000000     0.388000000
O    -1.292000000     5.539000000    -0.583000000
