14
-87.07168
C    -0.420000000     1.891000000    -2.224000000
H    -0.394000000     2.459000000    -3.150000000
C     0.488000000     0.859000000    -1.959000000
H     1.277000000     0.659000000    -2.679000000
C     0.554000000     0.285000000    -0.646000000
H     1.266000000    -0.488000000    -0.407000000
C    -0.424000000     0.619000000     0.305000000
H    -0.452000000     0.055000000     1.234000000
C    -1.394000000     1.595000000     0.060000000
H    -2.114000000     1.837000000     0.838000000
C    -1.322000000     2.283000000    -1.177000000
C    -2.303000000     3.461000000    -1.480000000
O    -3.393000000     3.555000000    -0.963000000
O    -1.850000000     4.401000000    -2.084000000
