14
-89.24648
C    -0.270000000     1.991000000    -1.488000000
H    -0.273000000     2.736000000    -2.279000000
C     0.858000000     1.198000000    -1.442000000
H     1.729000000     1.364000000    -2.070000000
C     0.889000000     0.107000000    -0.600000000
H     1.731000000    -0.508000000    -0.490000000
C    -0.228000000    -0.235000000     0.189000000
H    -0.213000000    -1.097000000     0.850000000
C    -1.356000000     0.623000000     0.102000000
H    -2.217000000     0.406000000     0.729000000
C    -1.420000000     1.686000000    -0.754000000
C    -2.678000000     2.456000000    -0.956000000
O    -3.746000000     1.864000000    -0.703000000
O    -2.683000000     3.468000000    -1.645000000
