14
-86.18098
C    -0.039000000     1.998000000    -1.355000000
H     0.442000000     2.712000000    -2.018000000
C     0.665000000     0.796000000    -1.050000000
H     1.687000000     0.692000000    -1.408000000
C     0.056000000    -0.275000000    -0.378000000
H     0.621000000    -1.137000000    -0.067000000
C    -1.227000000     0.025000000     0.180000000
H    -1.716000000    -0.666000000     0.863000000
C    -1.857000000     1.246000000    -0.104000000
H    -2.826000000     1.458000000     0.338000000
C    -1.327000000     2.228000000    -0.887000000
C    -2.103000000     3.516000000    -1.275000000
O    -3.281000000     3.590000000    -1.055000000
O    -1.582000000     4.363000000    -1.972000000
