14
-86.38029
C     0.021000000     1.517000000    -1.657000000
H     0.356000000     1.648000000    -2.683000000
C     0.437000000     0.406000000    -0.850000000
H     1.121000000    -0.369000000    -1.187000000
C    -0.127000000     0.224000000     0.444000000
H     0.256000000    -0.539000000     1.041000000
C    -1.111000000     1.125000000     0.839000000
H    -1.631000000     1.027000000     1.788000000
C    -1.561000000     2.155000000     0.009000000
H    -2.390000000     2.732000000     0.412000000
C    -1.048000000     2.377000000    -1.301000000
C    -1.464000000     3.527000000    -2.172000000
O    -2.375000000     4.258000000    -1.799000000
O    -0.998000000     3.702000000    -3.272000000
