14
-84.00495
C    -0.370000000    -0.114000000    -1.921000000
H     0.037000000     0.067000000    -2.913000000
C     0.552000000    -0.048000000    -0.871000000
H     1.586000000     0.148000000    -1.143000000
C     0.166000000    -0.410000000     0.410000000
H     0.958000000    -0.318000000     1.261000000
C    -1.171000000    -0.721000000     0.668000000
H    -1.453000000    -1.041000000     1.668000000
C    -2.069000000    -0.839000000    -0.412000000
H    -3.057000000    -1.194000000    -0.133000000
C    -1.713000000    -0.512000000    -1.716000000
C    -2.654000000    -0.590000000    -2.839000000
O    -3.789000000    -1.027000000    -2.686000000
O    -2.421000000     0.098000000    -3.807000000
