14
-89.98620
C    -1.382000000     1.026000000    -1.979000000
H    -2.319000000     0.720000000    -2.439000000
C    -1.120000000     0.298000000    -0.795000000
H    -1.880000000    -0.400000000    -0.455000000
C     0.041000000     0.468000000    -0.109000000
H     0.336000000    -0.044000000     0.829000000
C     1.016000000     1.343000000    -0.625000000
H     1.969000000     1.533000000    -0.138000000
C     0.781000000     2.068000000    -1.826000000
H     1.595000000     2.655000000    -2.244000000
C    -0.429000000     1.912000000    -2.500000000
C    -0.599000000     2.669000000    -3.812000000
O     0.059000000     3.664000000    -4.075000000
O    -1.469000000     2.271000000    -4.544000000
