14
-88.96986
C    -0.898000000     0.585000000    -2.339000000
H    -0.666000000     0.751000000    -3.387000000
C     0.034000000     0.598000000    -1.326000000
H     1.039000000     0.862000000    -1.643000000
C    -0.269000000     0.369000000    -0.017000000
H     0.434000000     0.398000000     0.756000000
C    -1.603000000     0.206000000     0.336000000
H    -2.021000000     0.239000000     1.339000000
C    -2.597000000     0.183000000    -0.683000000
H    -3.644000000    -0.003000000    -0.457000000
C    -2.230000000     0.394000000    -2.067000000
C    -3.265000000     0.509000000    -3.165000000
O    -4.420000000     0.820000000    -2.850000000
O    -2.858000000     0.610000000    -4.351000000
