14
-88.96466
C    -1.612000000     0.419000000    -2.214000000
H    -1.943000000     0.588000000    -3.235000000
C    -0.280000000     0.480000000    -1.941000000
H     0.435000000     0.518000000    -2.759000000
C     0.236000000     0.066000000    -0.715000000
H     1.257000000     0.047000000    -0.441000000
C    -0.698000000    -0.150000000     0.347000000
H    -0.356000000    -0.312000000     1.366000000
C    -2.094000000     0.006000000     0.089000000
H    -2.788000000    -0.126000000     0.915000000
C    -2.541000000     0.211000000    -1.206000000
C    -4.063000000     0.271000000    -1.471000000
O    -4.751000000     0.624000000    -0.525000000
O    -4.463000000     0.286000000    -2.679000000
