14
-89.13551
C    -1.171000000     0.382000000    -2.590000000
H    -1.210000000     0.556000000    -3.663000000
C     0.068000000     0.139000000    -1.892000000
H     0.977000000     0.228000000    -2.482000000
C     0.089000000    -0.111000000    -0.535000000
H     1.088000000    -0.175000000    -0.009000000
C    -1.107000000    -0.114000000     0.176000000
H    -1.128000000    -0.404000000     1.223000000
C    -2.334000000     0.222000000    -0.449000000
H    -3.212000000     0.247000000     0.190000000
C    -2.382000000     0.416000000    -1.833000000
C    -3.644000000     0.653000000    -2.613000000
O    -4.709000000     0.384000000    -2.112000000
O    -3.558000000     1.328000000    -3.626000000
