14
-88.33542
C    -1.120000000    -0.304000000    -2.215000000
H    -0.832000000    -0.240000000    -3.261000000
C    -0.086000000    -0.356000000    -1.312000000
H     0.975000000    -0.293000000    -1.541000000
C    -0.344000000    -0.313000000     0.051000000
H     0.493000000    -0.346000000     0.762000000
C    -1.631000000    -0.254000000     0.492000000
H    -1.714000000    -0.245000000     1.575000000
C    -2.699000000    -0.243000000    -0.398000000
H    -3.714000000    -0.162000000    -0.019000000
C    -2.482000000    -0.275000000    -1.758000000
C    -3.630000000    -0.039000000    -2.675000000
O    -4.714000000     0.282000000    -2.231000000
O    -3.422000000     0.011000000    -3.893000000
