14
-90.46095
C    -1.403000000     0.271000000    -2.254000000
H    -1.441000000     0.250000000    -3.340000000
C    -0.204000000     0.480000000    -1.553000000
H     0.657000000     0.707000000    -2.178000000
C    -0.231000000     0.338000000    -0.201000000
H     0.725000000     0.514000000     0.383000000
C    -1.389000000     0.048000000     0.492000000
H    -1.455000000     0.015000000     1.576000000
C    -2.613000000    -0.162000000    -0.198000000
H    -3.590000000    -0.286000000     0.262000000
C    -2.572000000     0.043000000    -1.601000000
C    -3.885000000     0.089000000    -2.388000000
O    -4.876000000    -0.264000000    -1.762000000
O    -3.912000000     0.501000000    -3.524000000
