14
-88.60465
C    -0.861000000    -0.121000000    -1.680000000
H    -0.744000000     0.008000000    -2.753000000
C     0.224000000    -0.024000000    -0.883000000
H     1.169000000     0.203000000    -1.371000000
C     0.102000000    -0.143000000     0.501000000
H     0.996000000    -0.110000000     1.114000000
C    -1.160000000    -0.375000000     0.995000000
H    -1.355000000    -0.472000000     2.060000000
C    -2.264000000    -0.562000000     0.158000000
H    -3.263000000    -0.615000000     0.581000000
C    -2.160000000    -0.368000000    -1.229000000
C    -3.254000000    -0.471000000    -2.252000000
O    -4.320000000    -1.058000000    -1.983000000
O    -2.995000000    -0.252000000    -3.456000000
