14
-87.52727
C    -0.859000000     0.613000000    -1.891000000
H    -0.643000000     0.803000000    -2.939000000
C     0.156000000     0.303000000    -0.932000000
H     1.184000000     0.154000000    -1.253000000
C    -0.155000000    -0.151000000     0.362000000
H     0.643000000    -0.513000000     1.049000000
C    -1.483000000    -0.256000000     0.725000000
H    -1.780000000    -0.653000000     1.692000000
C    -2.461000000    -0.013000000    -0.206000000
H    -3.484000000    -0.103000000     0.150000000
C    -2.173000000     0.487000000    -1.491000000
C    -3.318000000     0.818000000    -2.418000000
O    -4.461000000     0.767000000    -2.042000000
O    -3.087000000     1.116000000    -3.579000000
