14
-89.21379
C    -0.989000000     0.445000000    -1.912000000
H    -0.806000000     0.617000000    -2.969000000
C    -0.009000000     0.241000000    -0.968000000
H     1.043000000     0.448000000    -1.150000000
C    -0.321000000    -0.230000000     0.337000000
H     0.422000000    -0.271000000     1.181000000
C    -1.636000000    -0.523000000     0.609000000
H    -1.830000000    -0.841000000     1.630000000
C    -2.639000000    -0.086000000    -0.229000000
H    -3.684000000    -0.129000000     0.071000000
C    -2.335000000     0.353000000    -1.510000000
C    -3.411000000     0.738000000    -2.513000000
O    -4.588000000     0.341000000    -2.310000000
O    -3.145000000     1.297000000    -3.573000000
