14
-87.79028
C    -1.489000000     0.743000000    -2.260000000
H    -1.487000000     1.008000000    -3.315000000
C    -0.258000000     0.275000000    -1.784000000
H     0.580000000     0.154000000    -2.466000000
C    -0.084000000     0.019000000    -0.390000000
H     0.806000000    -0.379000000    -0.121000000
C    -1.212000000     0.149000000     0.446000000
H    -1.087000000    -0.051000000     1.507000000
C    -2.472000000     0.406000000    -0.074000000
H    -3.294000000     0.460000000     0.636000000
C    -2.633000000     0.816000000    -1.399000000
C    -3.972000000     1.258000000    -1.992000000
O    -4.949000000     1.246000000    -1.262000000
O    -4.112000000     1.592000000    -3.158000000
