14
-76.49872
C    -1.424000000     1.274000000    -2.007000000
H    -1.343000000     1.717000000    -2.997000000
C    -0.245000000     0.744000000    -1.404000000
H     0.709000000     0.890000000    -1.904000000
C    -0.356000000     0.084000000    -0.142000000
H     0.512000000    -0.358000000     0.270000000
C    -1.584000000     0.081000000     0.479000000
H    -1.667000000    -0.513000000     1.386000000
C    -2.743000000     0.501000000    -0.152000000
H    -3.750000000     0.427000000     0.250000000
C    -2.693000000     0.999000000    -1.417000000
C    -3.861000000     1.435000000    -2.171000000
O    -4.988000000     1.202000000    -1.731000000
O    -3.739000000     1.680000000    -3.310000000
