14
-84.37054
C    -0.031000000     0.699000000    -1.274000000
H     0.485000000     1.321000000    -2.001000000
C     0.739000000     0.315000000    -0.189000000
H     1.746000000     0.701000000    -0.055000000
C     0.174000000    -0.443000000     0.764000000
H     0.765000000    -0.803000000     1.657000000
C    -1.117000000    -0.875000000     0.609000000
H    -1.542000000    -1.515000000     1.378000000
C    -1.948000000    -0.456000000    -0.459000000
H    -2.996000000    -0.736000000    -0.522000000
C    -1.378000000     0.326000000    -1.510000000
C    -2.213000000     0.751000000    -2.715000000
O    -3.427000000     0.527000000    -2.832000000
O    -1.685000000     1.393000000    -3.572000000
