14
-87.29040
C    -0.130000000     1.566000000    -2.814000000
H    -0.059000000     2.190000000    -3.701000000
C     0.855000000     1.480000000    -1.876000000
H     1.705000000     2.136000000    -2.042000000
C     0.656000000     0.732000000    -0.711000000
H     1.461000000     0.564000000     0.044000000
C    -0.507000000    -0.021000000    -0.594000000
H    -0.597000000    -0.708000000     0.243000000
C    -1.506000000    -0.005000000    -1.548000000
H    -2.430000000    -0.571000000    -1.458000000
C    -1.366000000     0.842000000    -2.648000000
C    -2.408000000     0.879000000    -3.705000000
O    -3.226000000    -0.021000000    -3.816000000
O    -2.550000000     1.873000000    -4.370000000
