14
-83.46018
C     0.031000000     0.741000000    -1.497000000
H     0.644000000     1.354000000    -2.152000000
C     0.579000000     0.238000000    -0.327000000
H     1.649000000     0.266000000    -0.135000000
C    -0.208000000    -0.507000000     0.538000000
H     0.207000000    -0.953000000     1.449000000
C    -1.550000000    -0.594000000     0.314000000
H    -2.191000000    -1.147000000     0.995000000
C    -2.116000000    -0.043000000    -0.774000000
H    -3.197000000    -0.052000000    -0.893000000
C    -1.353000000     0.645000000    -1.767000000
C    -1.890000000     1.108000000    -3.106000000
O    -2.962000000     0.789000000    -3.445000000
O    -1.042000000     1.548000000    -3.875000000
