14
-87.71457
C    -1.170000000     1.158000000    -2.935000000
H    -2.067000000     1.044000000    -3.538000000
C    -1.147000000     0.231000000    -1.902000000
H    -1.954000000    -0.473000000    -1.717000000
C    -0.062000000     0.243000000    -1.016000000
H    -0.025000000    -0.420000000    -0.145000000
C     0.965000000     1.147000000    -1.167000000
H     1.799000000     1.169000000    -0.470000000
C     0.931000000     2.012000000    -2.170000000
H     1.801000000     2.660000000    -2.245000000
C    -0.093000000     2.073000000    -3.098000000
C    -0.139000000     3.036000000    -4.262000000
O     0.785000000     3.831000000    -4.425000000
O    -1.073000000     2.999000000    -5.084000000
