14
-86.93013
C    -1.312000000     0.818000000    -2.152000000
H    -1.089000000     1.501000000    -2.968000000
C    -0.624000000     0.796000000    -0.930000000
H     0.308000000     1.350000000    -0.843000000
C    -1.068000000     0.058000000     0.166000000
H    -0.523000000    -0.002000000     1.093000000
C    -2.172000000    -0.810000000     0.033000000
H    -2.446000000    -1.481000000     0.843000000
C    -2.825000000    -0.834000000    -1.229000000
H    -3.674000000    -1.501000000    -1.350000000
C    -2.486000000     0.025000000    -2.248000000
C    -3.353000000     0.019000000    -3.490000000
O    -4.409000000    -0.523000000    -3.461000000
O    -2.956000000     0.606000000    -4.446000000
