14
-86.90621
C    -0.320000000     1.172000000    -1.575000000
H     0.216000000     1.818000000    -2.266000000
C     0.391000000     0.442000000    -0.630000000
H     1.473000000     0.445000000    -0.734000000
C    -0.246000000    -0.267000000     0.349000000
H     0.326000000    -0.893000000     1.108000000
C    -1.618000000    -0.340000000     0.312000000
H    -2.165000000    -0.988000000     0.991000000
C    -2.402000000     0.344000000    -0.626000000
H    -3.469000000     0.152000000    -0.702000000
C    -1.761000000     1.077000000    -1.641000000
C    -2.517000000     1.821000000    -2.710000000
O    -3.694000000     1.609000000    -2.907000000
O    -1.993000000     2.763000000    -3.266000000
