14
-84.74959
C    -0.898000000     2.003000000    -1.176000000
H    -0.922000000     2.931000000    -1.742000000
C     0.314000000     1.409000000    -0.965000000
H     1.258000000     1.816000000    -1.318000000
C     0.318000000     0.224000000    -0.255000000
H     1.199000000    -0.281000000    -0.091000000
C    -0.894000000    -0.372000000     0.185000000
H    -0.837000000    -1.326000000     0.703000000
C    -2.124000000     0.198000000    -0.147000000
H    -3.117000000    -0.207000000     0.032000000
C    -2.159000000     1.443000000    -0.865000000
C    -3.495000000     2.130000000    -1.326000000
O    -4.586000000     1.685000000    -1.011000000
O    -3.470000000     3.218000000    -1.843000000
