14
-86.56068
C    -0.823000000     1.970000000    -1.729000000
H    -0.859000000     2.805000000    -2.424000000
C     0.363000000     1.435000000    -1.251000000
H     1.319000000     1.924000000    -1.420000000
C     0.384000000     0.358000000    -0.398000000
H     1.376000000     0.041000000    -0.103000000
C    -0.808000000    -0.272000000     0.077000000
H    -0.776000000    -1.162000000     0.701000000
C    -1.953000000     0.231000000    -0.444000000
H    -2.945000000    -0.173000000    -0.260000000
C    -1.994000000     1.384000000    -1.281000000
C    -3.364000000     1.981000000    -1.591000000
O    -4.393000000     1.691000000    -0.967000000
O    -3.511000000     2.724000000    -2.539000000
