14
-76.93369
C    -0.213000000     1.715000000    -1.564000000
H    -0.367000000     2.623000000    -2.141000000
C     1.031000000     1.133000000    -1.306000000
H     1.948000000     1.604000000    -1.650000000
C     1.140000000    -0.052000000    -0.512000000
H     2.148000000    -0.346000000    -0.183000000
C     0.045000000    -0.586000000     0.130000000
H     0.122000000    -1.509000000     0.698000000
C    -1.204000000    -0.071000000    -0.136000000
H    -2.081000000    -0.573000000     0.264000000
C    -1.326000000     1.038000000    -1.038000000
C    -2.726000000     1.483000000    -1.369000000
O    -3.593000000     1.212000000    -0.562000000
O    -2.935000000     2.344000000    -2.132000000
