14
-86.84446
C    -1.014000000     1.981000000    -1.693000000
H    -1.105000000     2.898000000    -2.270000000
C    -0.048000000     1.926000000    -0.672000000
H     0.570000000     2.787000000    -0.429000000
C     0.242000000     0.707000000     0.029000000
H     1.085000000     0.669000000     0.806000000
C    -0.594000000    -0.381000000    -0.188000000
H    -0.340000000    -1.324000000     0.289000000
C    -1.631000000    -0.280000000    -1.114000000
H    -2.186000000    -1.187000000    -1.343000000
C    -1.873000000     0.895000000    -1.926000000
C    -2.966000000     1.016000000    -2.924000000
O    -3.819000000     0.138000000    -2.945000000
O    -2.902000000     1.823000000    -3.912000000
