14
-87.58327
C    -0.400000000     1.871000000    -1.612000000
H    -0.457000000     2.812000000    -2.153000000
C     0.771000000     1.282000000    -1.207000000
H     1.738000000     1.719000000    -1.444000000
C     0.829000000     0.183000000    -0.354000000
H     1.837000000    -0.304000000    -0.168000000
C    -0.363000000    -0.383000000     0.176000000
H    -0.365000000    -1.308000000     0.746000000
C    -1.610000000     0.227000000    -0.163000000
H    -2.535000000    -0.193000000     0.224000000
C    -1.623000000     1.357000000    -1.055000000
C    -2.947000000     1.968000000    -1.367000000
O    -3.962000000     1.626000000    -0.752000000
O    -3.026000000     2.906000000    -2.142000000
