14
-83.25547
C    -1.300000000     1.466000000    -1.629000000
H    -1.291000000     1.942000000    -2.607000000
C    -0.150000000     1.100000000    -0.994000000
H     0.851000000     1.184000000    -1.410000000
C    -0.196000000     0.542000000     0.293000000
H     0.725000000     0.128000000     0.825000000
C    -1.438000000     0.297000000     0.855000000
H    -1.492000000    -0.180000000     1.830000000
C    -2.575000000     0.684000000     0.231000000
H    -3.563000000     0.496000000     0.644000000
C    -2.539000000     1.363000000    -0.976000000
C    -3.728000000     2.060000000    -1.642000000
O    -4.795000000     2.081000000    -1.120000000
O    -3.573000000     2.682000000    -2.660000000
