14
-87.15983
C    -0.439000000     1.501000000    -1.497000000
H    -0.005000000     2.120000000    -2.279000000
C     0.283000000     0.561000000    -0.769000000
H     1.356000000     0.488000000    -0.930000000
C    -0.305000000    -0.325000000     0.122000000
H     0.327000000    -0.942000000     0.721000000
C    -1.688000000    -0.238000000     0.308000000
H    -2.123000000    -0.971000000     0.982000000
C    -2.488000000     0.624000000    -0.371000000
H    -3.568000000     0.609000000    -0.251000000
C    -1.862000000     1.531000000    -1.314000000
C    -2.653000000     2.488000000    -2.222000000
O    -3.840000000     2.484000000    -2.026000000
O    -2.152000000     3.296000000    -2.977000000
