14
-91.69655
C    -0.274000000     2.238000000    -0.389000000
H    -0.127000000     3.309000000    -0.498000000
C     0.874000000     1.504000000    -0.106000000
H     1.847000000     1.987000000    -0.145000000
C     0.778000000     0.178000000     0.130000000
H     1.671000000    -0.434000000     0.352000000
C    -0.431000000    -0.493000000     0.094000000
H    -0.524000000    -1.551000000     0.322000000
C    -1.640000000     0.222000000    -0.204000000
H    -2.614000000    -0.261000000    -0.213000000
C    -1.555000000     1.611000000    -0.437000000
C    -2.824000000     2.385000000    -0.785000000
O    -3.872000000     1.871000000    -1.132000000
O    -2.694000000     3.614000000    -0.743000000
