14
-79.31026
C    -0.650000000     1.130000000    -1.674000000
H    -1.641000000     1.401000000    -2.030000000
C    -0.495000000     0.230000000    -0.645000000
H    -1.336000000    -0.364000000    -0.298000000
C     0.731000000     0.018000000    -0.057000000
H     0.853000000    -0.602000000     0.870000000
C     1.788000000     0.728000000    -0.570000000
H     2.787000000     0.678000000    -0.146000000
C     1.666000000     1.592000000    -1.691000000
H     2.530000000     2.132000000    -2.068000000
C     0.425000000     1.898000000    -2.178000000
C     0.412000000     2.731000000    -3.448000000
O     1.406000000     2.825000000    -4.085000000
O    -0.648000000     2.968000000    -4.001000000
