14
-87.19418
C    -0.514000000     1.874000000    -0.103000000
H    -0.267000000     2.914000000     0.100000000
C     0.392000000     0.856000000     0.037000000
H     1.442000000     1.092000000     0.189000000
C    -0.018000000    -0.484000000    -0.026000000
H     0.768000000    -1.316000000    -0.102000000
C    -1.379000000    -0.759000000    -0.283000000
H    -1.774000000    -1.770000000    -0.343000000
C    -2.220000000     0.286000000    -0.660000000
H    -3.275000000     0.064000000    -0.795000000
C    -1.843000000     1.604000000    -0.448000000
C    -2.806000000     2.755000000    -0.503000000
O    -3.842000000     2.630000000    -1.158000000
O    -2.501000000     3.836000000    -0.044000000
