14
-71.88938
C    -0.725000000     2.159000000    -0.580000000
H    -0.530000000     3.186000000    -0.880000000
C     0.300000000     1.321000000    -0.132000000
H     1.229000000     1.861000000     0.033000000
C     0.129000000    -0.054000000     0.021000000
H     0.986000000    -0.619000000     0.418000000
C    -1.100000000    -0.586000000    -0.245000000
H    -1.177000000    -1.631000000     0.047000000
C    -2.150000000     0.216000000    -0.740000000
H    -3.128000000    -0.240000000    -0.871000000
C    -1.941000000     1.564000000    -0.928000000
C    -3.031000000     2.379000000    -1.597000000
O    -3.762000000     1.791000000    -2.354000000
O    -2.882000000     3.544000000    -1.914000000
