14
-88.40310
C    -1.036000000     1.534000000    -0.216000000
H    -1.313000000     2.305000000     0.499000000
C    -0.264000000     0.475000000     0.341000000
H    -0.043000000     0.468000000     1.405000000
C     0.153000000    -0.540000000    -0.487000000
H     0.748000000    -1.405000000    -0.091000000
C    -0.319000000    -0.665000000    -1.773000000
H     0.051000000    -1.428000000    -2.453000000
C    -1.069000000     0.413000000    -2.335000000
H    -1.244000000     0.426000000    -3.408000000
C    -1.502000000     1.500000000    -1.546000000
C    -2.559000000     2.503000000    -2.135000000
O    -2.954000000     2.335000000    -3.296000000
O    -3.001000000     3.313000000    -1.390000000
