14
-84.84486
C    -0.660000000     1.289000000    -1.411000000
H    -1.704000000     1.398000000    -1.693000000
C    -0.456000000     0.466000000    -0.279000000
H    -1.199000000    -0.074000000     0.304000000
C     0.826000000     0.192000000     0.120000000
H     0.986000000    -0.387000000     1.048000000
C     1.912000000     0.648000000    -0.588000000
H     2.938000000     0.481000000    -0.268000000
C     1.688000000     1.528000000    -1.647000000
H     2.604000000     1.883000000    -2.112000000
C     0.419000000     1.832000000    -2.133000000
C     0.214000000     2.546000000    -3.360000000
O     1.242000000     3.049000000    -3.800000000
O    -0.904000000     2.770000000    -3.804000000
