14
-89.20100
C    -1.691000000     1.510000000    -0.062000000
H    -2.290000000     2.252000000     0.461000000
C    -0.723000000     0.740000000     0.632000000
H    -0.774000000     0.749000000     1.718000000
C     0.148000000    -0.185000000    -0.033000000
H     0.795000000    -0.814000000     0.618000000
C     0.117000000    -0.255000000    -1.407000000
H     0.736000000    -1.018000000    -1.871000000
C    -0.752000000     0.584000000    -2.143000000
H    -0.718000000     0.482000000    -3.225000000
C    -1.604000000     1.507000000    -1.460000000
C    -2.652000000     2.327000000    -2.179000000
O    -2.963000000     2.009000000    -3.310000000
O    -3.085000000     3.310000000    -1.620000000
