14
-85.19278
C    -1.038000000     2.010000000    -0.977000000
H    -1.110000000     3.095000000    -0.997000000
C    -0.123000000     1.511000000    -0.054000000
H     0.455000000     2.142000000     0.617000000
C    -0.011000000     0.146000000     0.087000000
H     0.711000000    -0.188000000     0.774000000
C    -0.809000000    -0.752000000    -0.696000000
H    -0.615000000    -1.816000000    -0.582000000
C    -1.710000000    -0.268000000    -1.564000000
H    -2.198000000    -0.957000000    -2.249000000
C    -1.909000000     1.123000000    -1.692000000
C    -2.941000000     1.754000000    -2.597000000
O    -3.705000000     1.178000000    -3.367000000
O    -3.099000000     2.953000000    -2.434000000
