14
-81.37787
C    -1.189000000     0.962000000    -1.853000000
H    -2.166000000     1.195000000    -2.270000000
C    -1.003000000     0.175000000    -0.725000000
H    -1.833000000    -0.294000000    -0.201000000
C     0.237000000     0.059000000    -0.204000000
H     0.271000000    -0.401000000     0.725000000
C     1.396000000     0.699000000    -0.713000000
H     2.416000000     0.591000000    -0.352000000
C     1.177000000     1.507000000    -1.779000000
H     1.997000000     2.038000000    -2.255000000
C    -0.050000000     1.586000000    -2.441000000
C    -0.257000000     2.518000000    -3.604000000
O     0.630000000     3.174000000    -4.125000000
O    -1.322000000     2.500000000    -4.220000000
