14
-89.91853
C    -2.014000000     1.230000000    -2.015000000
H    -2.341000000     2.023000000    -2.683000000
C    -0.933000000     1.429000000    -1.171000000
H    -0.407000000     2.380000000    -1.192000000
C    -0.483000000     0.332000000    -0.426000000
H     0.468000000     0.588000000     0.065000000
C    -1.173000000    -0.878000000    -0.413000000
H    -0.796000000    -1.676000000     0.222000000
C    -2.231000000    -1.027000000    -1.275000000
H    -2.772000000    -1.966000000    -1.362000000
C    -2.701000000    -0.009000000    -2.072000000
C    -3.954000000    -0.217000000    -2.916000000
O    -4.387000000    -1.316000000    -3.248000000
O    -4.512000000     0.804000000    -3.241000000
