14
-83.63968
C    -1.139000000     1.970000000    -1.543000000
H    -1.425000000     3.017000000    -1.609000000
C    -0.196000000     1.717000000    -0.514000000
H     0.156000000     2.558000000     0.076000000
C     0.186000000     0.421000000    -0.238000000
H     0.773000000     0.073000000     0.619000000
C    -0.351000000    -0.629000000    -1.001000000
H    -0.105000000    -1.642000000    -0.693000000
C    -1.348000000    -0.393000000    -1.997000000
H    -1.616000000    -1.210000000    -2.662000000
C    -1.727000000     0.896000000    -2.274000000
C    -2.961000000     1.103000000    -3.197000000
O    -3.488000000     0.137000000    -3.668000000
O    -3.496000000     2.176000000    -3.206000000
