14
-84.91714
C    -1.110000000     1.240000000    -1.821000000
H    -1.397000000     2.058000000    -2.477000000
C     0.103000000     1.380000000    -1.083000000
H     0.681000000     2.299000000    -1.139000000
C     0.493000000     0.328000000    -0.272000000
H     1.429000000     0.369000000     0.194000000
C    -0.301000000    -0.804000000    -0.161000000
H     0.100000000    -1.588000000     0.476000000
C    -1.411000000    -0.952000000    -1.031000000
H    -1.907000000    -1.920000000    -1.052000000
C    -1.858000000     0.092000000    -1.864000000
C    -3.045000000    -0.022000000    -2.859000000
O    -3.842000000    -0.935000000    -2.698000000
O    -3.432000000     1.062000000    -3.388000000
