14
-89.51642
C    -1.701000000     1.467000000    -1.906000000
H    -2.640000000     1.753000000    -2.371000000
C    -1.756000000     0.399000000    -0.971000000
H    -2.691000000    -0.026000000    -0.614000000
C    -0.520000000     0.057000000    -0.353000000
H    -0.548000000    -0.610000000     0.474000000
C     0.657000000     0.632000000    -0.733000000
H     1.613000000     0.266000000    -0.369000000
C     0.659000000     1.527000000    -1.829000000
H     1.608000000     1.975000000    -2.110000000
C    -0.479000000     1.925000000    -2.431000000
C    -0.420000000     2.898000000    -3.576000000
O     0.685000000     3.178000000    -4.055000000
O    -1.434000000     3.452000000    -3.962000000
