14
-83.17209
C    -0.945000000     1.196000000    -1.729000000
H    -0.996000000     2.025000000    -2.430000000
C     0.049000000     1.035000000    -0.841000000
H     0.912000000     1.690000000    -0.756000000
C     0.110000000    -0.023000000     0.062000000
H     0.937000000    -0.112000000     0.754000000
C    -0.924000000    -0.994000000    -0.021000000
H    -0.896000000    -1.815000000     0.692000000
C    -1.971000000    -0.788000000    -0.890000000
H    -2.750000000    -1.521000000    -1.081000000
C    -2.013000000     0.336000000    -1.797000000
C    -3.154000000     0.468000000    -2.724000000
O    -4.065000000    -0.279000000    -2.706000000
O    -3.095000000     1.366000000    -3.549000000
