14
-78.47856
C    -1.942000000     1.639000000    -1.442000000
H    -2.217000000     2.608000000    -1.850000000
C    -0.596000000     1.394000000    -1.181000000
H     0.109000000     2.190000000    -1.409000000
C    -0.179000000     0.152000000    -0.697000000
H     0.833000000    -0.121000000    -0.400000000
C    -1.117000000    -0.878000000    -0.389000000
H    -0.705000000    -1.829000000    -0.063000000
C    -2.488000000    -0.572000000    -0.531000000
H    -3.268000000    -1.314000000    -0.377000000
C    -2.885000000     0.707000000    -1.036000000
C    -4.345000000     1.027000000    -1.325000000
O    -5.203000000     0.186000000    -1.193000000
O    -4.696000000     1.946000000    -2.025000000
