14
-90.82294
C    -1.112000000     1.217000000    -0.970000000
H    -1.572000000     2.148000000    -1.291000000
C     0.133000000     1.213000000    -0.509000000
H     0.763000000     2.097000000    -0.566000000
C     0.727000000    -0.015000000    -0.073000000
H     1.792000000    -0.010000000     0.136000000
C    -0.059000000    -1.170000000     0.012000000
H     0.431000000    -2.006000000     0.504000000
C    -1.365000000    -1.167000000    -0.533000000
H    -1.968000000    -2.067000000    -0.620000000
C    -1.892000000     0.030000000    -1.085000000
C    -3.275000000     0.043000000    -1.685000000
O    -4.007000000    -0.926000000    -1.553000000
O    -3.592000000     1.042000000    -2.315000000
