14
-86.62534
C    -1.413000000     1.478000000    -0.620000000
H    -1.873000000     2.322000000    -1.127000000
C    -0.080000000     1.632000000    -0.479000000
H     0.395000000     2.493000000    -0.942000000
C     0.685000000     0.577000000     0.003000000
H     1.718000000     0.725000000     0.087000000
C     0.060000000    -0.586000000     0.425000000
H     0.609000000    -1.352000000     0.967000000
C    -1.303000000    -0.849000000     0.108000000
H    -1.768000000    -1.826000000     0.215000000
C    -2.063000000     0.240000000    -0.414000000
C    -3.535000000     0.117000000    -0.817000000
O    -4.208000000    -0.928000000    -0.610000000
O    -3.974000000     0.988000000    -1.574000000
