14
-89.47544
C    -1.245000000     1.515000000    -0.823000000
H    -1.623000000     2.450000000    -1.228000000
C    -0.028000000     1.594000000    -0.189000000
H     0.540000000     2.521000000    -0.197000000
C     0.544000000     0.435000000     0.264000000
H     1.671000000     0.402000000     0.518000000
C    -0.154000000    -0.819000000     0.203000000
H     0.225000000    -1.688000000     0.735000000
C    -1.395000000    -0.867000000    -0.369000000
H    -2.029000000    -1.746000000    -0.291000000
C    -1.908000000     0.315000000    -0.979000000
C    -3.302000000     0.334000000    -1.554000000
O    -4.030000000    -0.688000000    -1.373000000
O    -3.647000000     1.274000000    -2.255000000
