14
-87.48936
C    -1.450000000     1.376000000    -0.684000000
H    -1.308000000     2.408000000    -0.996000000
C    -0.313000000     0.669000000    -0.255000000
H     0.600000000     1.213000000    -0.026000000
C    -0.320000000    -0.649000000     0.057000000
H     0.513000000    -1.134000000     0.620000000
C    -1.481000000    -1.378000000    -0.178000000
H    -1.424000000    -2.429000000     0.095000000
C    -2.652000000    -0.706000000    -0.638000000
H    -3.577000000    -1.271000000    -0.713000000
C    -2.674000000     0.672000000    -0.816000000
C    -3.927000000     1.332000000    -1.424000000
O    -5.031000000     0.803000000    -1.414000000
O    -3.787000000     2.421000000    -1.936000000
