14
-80.30576
C    -1.189000000     0.683000000    -1.301000000
H    -2.251000000     0.860000000    -1.445000000
C    -0.804000000     0.217000000    -0.095000000
H    -1.530000000    -0.011000000     0.681000000
C     0.536000000    -0.073000000     0.177000000
H     0.940000000    -0.425000000     1.127000000
C     1.495000000     0.164000000    -0.753000000
H     2.527000000    -0.097000000    -0.531000000
C     1.125000000     0.611000000    -1.979000000
H     1.848000000     0.779000000    -2.773000000
C    -0.197000000     0.837000000    -2.279000000
C    -0.519000000     1.359000000    -3.607000000
O     0.302000000     1.288000000    -4.493000000
O    -1.479000000     2.061000000    -3.726000000
