14
-85.95123
C    -1.125000000     0.916000000    -1.568000000
H    -0.969000000     1.759000000    -2.236000000
C    -0.398000000     0.754000000    -0.400000000
H     0.386000000     1.443000000    -0.097000000
C    -0.694000000    -0.255000000     0.522000000
H    -0.173000000    -0.229000000     1.481000000
C    -1.672000000    -1.186000000     0.169000000
H    -1.942000000    -1.973000000     0.868000000
C    -2.388000000    -1.106000000    -1.001000000
H    -3.177000000    -1.847000000    -1.104000000
C    -2.167000000    -0.012000000    -1.920000000
C    -3.065000000     0.172000000    -3.116000000
O    -4.089000000    -0.460000000    -3.303000000
O    -2.894000000     1.171000000    -3.796000000
