14
-88.77460
C    -1.077000000     1.158000000    -1.676000000
H    -1.271000000     2.096000000    -2.191000000
C     0.021000000     1.032000000    -0.810000000
H     0.545000000     1.934000000    -0.504000000
C     0.292000000    -0.166000000    -0.116000000
H     1.126000000    -0.204000000     0.632000000
C    -0.547000000    -1.218000000    -0.251000000
H    -0.457000000    -2.152000000     0.299000000
C    -1.609000000    -1.145000000    -1.192000000
H    -2.311000000    -1.970000000    -1.285000000
C    -1.898000000     0.050000000    -1.937000000
C    -3.151000000     0.075000000    -2.762000000
O    -4.096000000    -0.669000000    -2.554000000
O    -3.296000000     1.006000000    -3.566000000
