14
-89.14367
C    -1.504000000     1.135000000    -2.245000000
H    -1.545000000     1.955000000    -2.958000000
C    -0.544000000     1.134000000    -1.251000000
H     0.264000000     1.861000000    -1.288000000
C    -0.526000000     0.081000000    -0.284000000
H     0.253000000     0.002000000     0.409000000
C    -1.487000000    -0.983000000    -0.369000000
H    -1.404000000    -1.852000000     0.279000000
C    -2.477000000    -0.925000000    -1.344000000
H    -3.253000000    -1.670000000    -1.502000000
C    -2.486000000     0.131000000    -2.298000000
C    -3.555000000     0.220000000    -3.378000000
O    -4.420000000    -0.620000000    -3.479000000
O    -3.657000000     1.268000000    -3.977000000
