14
-69.65006
C    -1.799000000     1.413000000    -2.170000000
H    -1.961000000     2.190000000    -2.913000000
C    -1.010000000     1.706000000    -1.047000000
H    -0.464000000     2.639000000    -0.929000000
C    -0.721000000     0.735000000    -0.233000000
H     0.029000000     0.903000000     0.454000000
C    -1.352000000    -0.543000000    -0.350000000
H    -1.069000000    -1.289000000     0.388000000
C    -2.268000000    -0.698000000    -1.341000000
H    -2.828000000    -1.629000000    -1.347000000
C    -2.516000000     0.215000000    -2.256000000
C    -3.589000000     0.070000000    -3.416000000
O    -4.242000000    -0.956000000    -3.550000000
O    -3.860000000     0.971000000    -4.139000000
