14
-86.59375
C    -1.508000000     1.401000000    -1.193000000
H    -1.866000000     2.399000000    -1.434000000
C    -0.256000000     1.180000000    -0.693000000
H     0.213000000     2.129000000    -0.442000000
C     0.208000000    -0.097000000    -0.429000000
H     1.187000000    -0.246000000     0.033000000
C    -0.691000000    -1.132000000    -0.516000000
H    -0.456000000    -2.160000000    -0.252000000
C    -1.901000000    -0.886000000    -1.114000000
H    -2.616000000    -1.684000000    -1.294000000
C    -2.332000000     0.340000000    -1.497000000
C    -3.687000000     0.508000000    -2.123000000
O    -4.410000000    -0.473000000    -2.336000000
O    -4.116000000     1.645000000    -2.458000000
