14
-84.63576
C    -1.222000000     1.368000000    -0.621000000
H    -1.878000000     2.199000000    -0.870000000
C     0.040000000     1.629000000    -0.104000000
H     0.370000000     2.642000000     0.112000000
C     0.859000000     0.607000000     0.330000000
H     1.834000000     0.861000000     0.825000000
C     0.417000000    -0.678000000     0.241000000
H     1.072000000    -1.476000000     0.583000000
C    -0.786000000    -0.994000000    -0.279000000
H    -1.109000000    -2.023000000    -0.415000000
C    -1.618000000     0.052000000    -0.856000000
C    -3.017000000    -0.242000000    -1.428000000
O    -3.392000000    -1.348000000    -1.448000000
O    -3.770000000     0.719000000    -1.710000000
