14
-86.88707
C    -0.552000000     1.517000000    -1.365000000
H    -0.482000000     2.595000000    -1.241000000
C     0.130000000     0.702000000    -0.449000000
H     0.757000000     1.114000000     0.337000000
C    -0.107000000    -0.661000000    -0.401000000
H     0.294000000    -1.304000000     0.255000000
C    -0.877000000    -1.249000000    -1.358000000
H    -1.013000000    -2.318000000    -1.499000000
C    -1.491000000    -0.436000000    -2.301000000
H    -1.957000000    -0.994000000    -3.109000000
C    -1.367000000     0.954000000    -2.369000000
C    -2.175000000     1.691000000    -3.430000000
O    -2.929000000     1.073000000    -4.174000000
O    -2.210000000     2.940000000    -3.345000000
