14
-87.24882
C    -1.233000000     1.837000000    -1.064000000
H    -1.609000000     2.857000000    -1.038000000
C     0.041000000     1.614000000    -0.539000000
H     0.638000000     2.442000000    -0.167000000
C     0.514000000     0.322000000    -0.395000000
H     1.460000000     0.202000000     0.011000000
C    -0.315000000    -0.802000000    -0.740000000
H    -0.026000000    -1.832000000    -0.545000000
C    -1.550000000    -0.483000000    -1.313000000
H    -2.191000000    -1.276000000    -1.689000000
C    -2.025000000     0.805000000    -1.533000000
C    -3.399000000     0.935000000    -2.061000000
O    -3.980000000     0.017000000    -2.549000000
O    -3.914000000     2.066000000    -2.064000000
