14
-88.12811
C    -0.722000000     1.569000000    -0.719000000
H    -0.580000000     2.645000000    -0.786000000
C     0.160000000     0.756000000    -0.001000000
H     0.998000000     1.256000000     0.478000000
C    -0.038000000    -0.594000000     0.153000000
H     0.626000000    -1.174000000     0.835000000
C    -1.164000000    -1.161000000    -0.434000000
H    -1.431000000    -2.212000000    -0.372000000
C    -2.042000000    -0.368000000    -1.175000000
H    -2.820000000    -0.905000000    -1.712000000
C    -1.929000000     1.026000000    -1.231000000
C    -2.935000000     1.863000000    -1.972000000
O    -3.525000000     1.312000000    -2.832000000
O    -3.131000000     3.008000000    -1.615000000
