14
-75.59544
C    -0.845000000     1.640000000    -2.008000000
H    -0.911000000     2.546000000    -2.604000000
C    -0.086000000     1.637000000    -0.855000000
H     0.336000000     2.597000000    -0.569000000
C     0.190000000     0.478000000    -0.126000000
H     0.718000000     0.561000000     0.806000000
C    -0.335000000    -0.670000000    -0.526000000
H    -0.148000000    -1.610000000    -0.014000000
C    -1.198000000    -0.745000000    -1.683000000
H    -1.590000000    -1.719000000    -1.964000000
C    -1.444000000     0.416000000    -2.409000000
C    -2.337000000     0.449000000    -3.629000000
O    -3.045000000    -0.452000000    -3.966000000
O    -2.543000000     1.462000000    -4.214000000
