14
-86.59056
C    -0.216000000     1.788000000    -0.225000000
H    -0.024000000     2.857000000    -0.205000000
C     0.607000000     0.759000000     0.274000000
H     1.532000000     1.013000000     0.785000000
C     0.263000000    -0.573000000     0.237000000
H     0.864000000    -1.343000000     0.774000000
C    -0.994000000    -0.895000000    -0.272000000
H    -1.290000000    -1.941000000    -0.278000000
C    -1.886000000     0.053000000    -0.811000000
H    -2.794000000    -0.426000000    -1.169000000
C    -1.428000000     1.375000000    -0.854000000
C    -2.337000000     2.345000000    -1.551000000
O    -3.441000000     1.918000000    -2.008000000
O    -2.005000000     3.480000000    -1.818000000
