14
-90.59092
C    -0.414000000    -0.465000000    -1.769000000
H    -1.314000000    -0.840000000    -2.251000000
C    -0.397000000    -0.455000000    -0.365000000
H    -1.278000000    -0.860000000     0.126000000
C     0.587000000     0.234000000     0.321000000
H     0.573000000     0.335000000     1.405000000
C     1.645000000     0.791000000    -0.389000000
H     2.418000000     1.338000000     0.143000000
C     1.692000000     0.767000000    -1.790000000
H     2.614000000     1.133000000    -2.235000000
C     0.655000000     0.142000000    -2.473000000
C     0.610000000     0.069000000    -4.039000000
O     1.283000000     0.820000000    -4.673000000
O    -0.132000000    -0.749000000    -4.571000000
