14
-91.83473
C     0.360000000     1.326000000    -0.637000000
H     0.846000000     2.285000000    -0.797000000
C     0.931000000     0.373000000     0.240000000
H     1.820000000     0.615000000     0.818000000
C     0.372000000    -0.883000000     0.434000000
H     0.785000000    -1.522000000     1.226000000
C    -0.774000000    -1.204000000    -0.268000000
H    -1.252000000    -2.166000000    -0.101000000
C    -1.424000000    -0.298000000    -1.069000000
H    -2.290000000    -0.607000000    -1.648000000
C    -0.880000000     1.010000000    -1.246000000
C    -1.617000000     1.994000000    -2.125000000
O    -2.658000000     1.670000000    -2.670000000
O    -1.205000000     3.141000000    -2.239000000
