14
-78.08525
C    -0.919000000     1.517000000    -1.363000000
H    -1.048000000     2.593000000    -1.453000000
C    -0.052000000     0.912000000    -0.383000000
H     0.517000000     1.504000000     0.329000000
C     0.003000000    -0.480000000    -0.304000000
H     0.556000000    -0.934000000     0.474000000
C    -0.622000000    -1.275000000    -1.242000000
H    -0.675000000    -2.359000000    -1.192000000
C    -1.254000000    -0.641000000    -2.315000000
H    -1.455000000    -1.339000000    -3.124000000
C    -1.481000000     0.742000000    -2.380000000
C    -2.204000000     1.463000000    -3.465000000
O    -2.532000000     0.751000000    -4.367000000
O    -2.742000000     2.503000000    -3.248000000
