14
-87.08972
C    -0.080000000     1.512000000    -1.420000000
H     0.132000000     2.526000000    -1.749000000
C     0.434000000     1.076000000    -0.202000000
H     1.066000000     1.781000000     0.333000000
C     0.091000000    -0.158000000     0.321000000
H     0.451000000    -0.446000000     1.310000000
C    -0.724000000    -0.944000000    -0.418000000
H    -0.915000000    -1.956000000    -0.073000000
C    -1.240000000    -0.595000000    -1.678000000
H    -1.974000000    -1.184000000    -2.222000000
C    -0.851000000     0.651000000    -2.235000000
C    -1.591000000     1.082000000    -3.491000000
O    -2.224000000     0.271000000    -4.138000000
O    -1.409000000     2.191000000    -3.994000000
