14
-78.66292
C    -0.256000000     0.528000000    -1.917000000
H     0.172000000     1.171000000    -2.682000000
C     0.243000000     0.563000000    -0.633000000
H     1.007000000     1.211000000    -0.211000000
C    -0.089000000    -0.396000000     0.247000000
H     0.339000000    -0.465000000     1.272000000
C    -0.904000000    -1.418000000    -0.169000000
H    -1.144000000    -2.202000000     0.545000000
C    -1.452000000    -1.411000000    -1.410000000
H    -2.009000000    -2.317000000    -1.634000000
C    -1.041000000    -0.492000000    -2.379000000
C    -1.652000000    -0.609000000    -3.758000000
O    -2.498000000    -1.473000000    -4.024000000
O    -1.592000000     0.393000000    -4.501000000
