14
-88.22618
C    -1.109000000     0.595000000    -2.061000000
H    -1.539000000     1.085000000    -2.932000000
C    -0.477000000     1.130000000    -0.937000000
H    -0.292000000     2.201000000    -0.941000000
C     0.134000000     0.343000000     0.053000000
H     0.652000000     0.736000000     0.898000000
C    -0.078000000    -1.035000000    -0.025000000
H     0.279000000    -1.659000000     0.790000000
C    -0.796000000    -1.598000000    -1.107000000
H    -0.966000000    -2.671000000    -1.090000000
C    -1.278000000    -0.765000000    -2.100000000
C    -2.119000000    -1.374000000    -3.267000000
O    -2.235000000    -2.580000000    -3.331000000
O    -2.830000000    -0.687000000    -4.004000000
