14
-88.99308
C    -0.891000000     0.746000000    -2.562000000
H    -1.197000000     1.276000000    -3.460000000
C    -0.166000000     1.368000000    -1.522000000
H     0.145000000     2.409000000    -1.539000000
C     0.275000000     0.629000000    -0.394000000
H     0.877000000     1.107000000     0.420000000
C     0.036000000    -0.732000000    -0.328000000
H     0.262000000    -1.233000000     0.609000000
C    -0.659000000    -1.326000000    -1.366000000
H    -0.994000000    -2.347000000    -1.206000000
C    -1.098000000    -0.624000000    -2.481000000
C    -2.034000000    -1.251000000    -3.571000000
O    -2.511000000    -2.372000000    -3.358000000
O    -2.462000000    -0.623000000    -4.529000000
