14
-82.45355
C    -0.402000000     1.299000000    -2.508000000
H    -0.237000000     2.229000000    -3.045000000
C     0.016000000     1.236000000    -1.236000000
H     0.456000000     2.085000000    -0.720000000
C    -0.316000000     0.150000000    -0.448000000
H     0.006000000     0.099000000     0.598000000
C    -0.976000000    -0.960000000    -0.984000000
H    -1.063000000    -1.870000000    -0.396000000
C    -1.242000000    -0.929000000    -2.346000000
H    -1.654000000    -1.841000000    -2.771000000
C    -1.050000000     0.182000000    -3.176000000
C    -1.400000000     0.267000000    -4.632000000
O    -2.132000000    -0.603000000    -5.129000000
O    -0.999000000     1.151000000    -5.281000000
