14
-94.36281
C    -0.695000000     1.331000000    -2.404000000
H    -0.914000000     2.023000000    -3.213000000
C    -0.015000000     1.712000000    -1.247000000
H     0.231000000     2.759000000    -1.091000000
C     0.294000000     0.823000000    -0.245000000
H     0.918000000     1.224000000     0.588000000
C    -0.080000000    -0.502000000    -0.359000000
H     0.155000000    -1.174000000     0.462000000
C    -0.793000000    -0.890000000    -1.483000000
H    -1.021000000    -1.951000000    -1.552000000
C    -1.061000000    -0.026000000    -2.546000000
C    -1.791000000    -0.484000000    -3.790000000
O    -2.160000000    -1.661000000    -3.788000000
O    -1.885000000     0.255000000    -4.752000000
