14
-87.09185
C    -1.395000000     1.117000000    -2.063000000
H    -1.617000000     1.830000000    -2.853000000
C    -0.464000000     1.467000000    -1.116000000
H    -0.082000000     2.484000000    -1.164000000
C    -0.019000000     0.644000000    -0.110000000
H     0.579000000     1.017000000     0.674000000
C    -0.311000000    -0.721000000    -0.212000000
H    -0.012000000    -1.477000000     0.510000000
C    -1.249000000    -1.109000000    -1.185000000
H    -1.538000000    -2.156000000    -1.239000000
C    -1.771000000    -0.234000000    -2.133000000
C    -2.615000000    -0.685000000    -3.236000000
O    -2.723000000    -1.870000000    -3.466000000
O    -3.167000000     0.155000000    -3.925000000
