14
-65.28540
C    -1.358000000     0.833000000    -1.708000000
H    -1.778000000     1.800000000    -1.975000000
C    -0.559000000     0.839000000    -0.523000000
H    -0.386000000     1.830000000    -0.112000000
C     0.016000000    -0.312000000    -0.082000000
H     0.724000000    -0.247000000     0.753000000
C    -0.232000000    -1.465000000    -0.780000000
H     0.270000000    -2.337000000    -0.369000000
C    -1.009000000    -1.495000000    -1.967000000
H    -1.136000000    -2.432000000    -2.504000000
C    -1.616000000    -0.363000000    -2.474000000
C    -2.618000000    -0.362000000    -3.617000000
O    -2.969000000    -1.466000000    -4.060000000
O    -3.447000000     0.435000000    -3.819000000
