14
-86.63494
C     0.364000000    -0.593000000    -2.036000000
H     1.103000000    -0.705000000    -2.825000000
C     0.702000000    -0.251000000    -0.698000000
H     1.730000000    -0.215000000    -0.345000000
C    -0.219000000    -0.012000000     0.278000000
H     0.077000000     0.210000000     1.333000000
C    -1.588000000     0.126000000    -0.055000000
H    -2.406000000     0.328000000     0.632000000
C    -1.947000000    -0.260000000    -1.373000000
H    -3.008000000    -0.262000000    -1.611000000
C    -1.016000000    -0.564000000    -2.362000000
C    -1.539000000    -0.745000000    -3.765000000
O    -2.730000000    -0.851000000    -4.038000000
O    -0.762000000    -0.638000000    -4.704000000
