14
-85.67135
C    -0.675000000     0.677000000    -3.106000000
H    -0.693000000     1.481000000    -3.838000000
C    -0.284000000     1.009000000    -1.823000000
H     0.019000000     2.043000000    -1.681000000
C    -0.354000000     0.097000000    -0.814000000
H     0.080000000     0.458000000     0.126000000
C    -0.858000000    -1.152000000    -1.011000000
H    -0.894000000    -1.820000000    -0.154000000
C    -1.198000000    -1.523000000    -2.335000000
H    -1.628000000    -2.507000000    -2.505000000
C    -1.131000000    -0.643000000    -3.416000000
C    -1.715000000    -0.966000000    -4.776000000
O    -2.203000000    -2.065000000    -5.020000000
O    -1.785000000    -0.097000000    -5.584000000
