14
-83.35389
C    -1.338000000     1.323000000    -2.041000000
H    -1.744000000     2.175000000    -2.581000000
C    -0.625000000     1.439000000    -0.919000000
H    -0.472000000     2.429000000    -0.496000000
C    -0.107000000     0.333000000    -0.131000000
H     0.564000000     0.459000000     0.703000000
C    -0.227000000    -0.910000000    -0.718000000
H     0.192000000    -1.742000000    -0.156000000
C    -0.927000000    -1.129000000    -1.908000000
H    -1.058000000    -2.163000000    -2.220000000
C    -1.506000000    -0.010000000    -2.543000000
C    -2.345000000    -0.220000000    -3.831000000
O    -2.431000000    -1.331000000    -4.338000000
O    -2.911000000     0.687000000    -4.354000000
