14
-84.42440
C    -0.407000000     0.075000000    -2.433000000
H     0.097000000     0.714000000    -3.154000000
C    -0.182000000     0.353000000    -1.095000000
H     0.366000000     1.184000000    -0.657000000
C    -0.735000000    -0.469000000    -0.045000000
H    -0.573000000    -0.159000000     1.047000000
C    -1.498000000    -1.575000000    -0.403000000
H    -1.988000000    -2.170000000     0.363000000
C    -1.840000000    -1.750000000    -1.766000000
H    -2.547000000    -2.502000000    -2.107000000
C    -1.354000000    -0.906000000    -2.782000000
C    -1.658000000    -1.087000000    -4.231000000
O    -2.540000000    -1.862000000    -4.523000000
O    -1.112000000    -0.489000000    -5.161000000
