14
-88.43630
C     0.124000000    -1.536000000    -2.672000000
H     0.253000000    -1.971000000    -3.660000000
C     1.049000000    -0.780000000    -1.937000000
H     2.034000000    -0.521000000    -2.315000000
C     0.668000000    -0.306000000    -0.693000000
H     1.302000000     0.211000000    -0.021000000
C    -0.622000000    -0.506000000    -0.179000000
H    -0.897000000    -0.060000000     0.773000000
C    -1.561000000    -1.180000000    -0.937000000
H    -2.556000000    -1.430000000    -0.578000000
C    -1.182000000    -1.763000000    -2.145000000
C    -2.161000000    -2.596000000    -2.967000000
O    -3.322000000    -2.532000000    -2.734000000
O    -1.745000000    -3.069000000    -4.030000000
