14
-83.70814
C     0.042000000    -1.439000000    -2.734000000
H     0.704000000    -2.063000000    -3.330000000
C     0.559000000    -1.091000000    -1.479000000
H     1.601000000    -1.267000000    -1.226000000
C    -0.313000000    -0.448000000    -0.545000000
H    -0.063000000    -0.115000000     0.440000000
C    -1.613000000    -0.132000000    -0.912000000
H    -2.258000000     0.356000000    -0.185000000
C    -2.106000000    -0.531000000    -2.173000000
H    -3.118000000    -0.287000000    -2.482000000
C    -1.243000000    -1.152000000    -3.104000000
C    -1.676000000    -1.465000000    -4.519000000
O    -2.774000000    -1.228000000    -4.845000000
O    -0.864000000    -1.814000000    -5.373000000
