14
-88.90663
C    -0.238000000    -1.151000000    -2.247000000
H     0.143000000    -1.714000000    -3.096000000
C     0.631000000    -0.557000000    -1.349000000
H     1.682000000    -0.811000000    -1.460000000
C     0.219000000    -0.043000000    -0.123000000
H     1.017000000     0.265000000     0.538000000
C    -1.141000000     0.215000000     0.057000000
H    -1.570000000     0.831000000     0.843000000
C    -2.039000000    -0.209000000    -0.926000000
H    -3.086000000    -0.013000000    -0.710000000
C    -1.603000000    -0.913000000    -2.090000000
C    -2.558000000    -1.493000000    -3.045000000
O    -3.736000000    -1.150000000    -3.022000000
O    -2.123000000    -2.282000000    -3.908000000
