14
-88.60436
C     0.135000000    -1.160000000    -1.282000000
H     0.913000000    -1.635000000    -1.873000000
C     0.574000000    -0.446000000    -0.213000000
H     1.621000000    -0.551000000     0.058000000
C    -0.274000000     0.332000000     0.541000000
H     0.132000000     0.997000000     1.315000000
C    -1.659000000     0.250000000     0.241000000
H    -2.413000000     0.736000000     0.854000000
C    -2.099000000    -0.529000000    -0.824000000
H    -3.174000000    -0.584000000    -0.971000000
C    -1.219000000    -1.291000000    -1.607000000
C    -1.731000000    -2.166000000    -2.733000000
O    -2.917000000    -2.091000000    -3.062000000
O    -1.045000000    -2.981000000    -3.339000000
