14
-79.75107
C    -0.282000000    -1.648000000    -2.331000000
H     0.248000000    -2.338000000    -2.983000000
C     0.443000000    -0.820000000    -1.505000000
H     1.508000000    -0.610000000    -1.558000000
C    -0.238000000    -0.170000000    -0.512000000
H     0.161000000     0.561000000     0.215000000
C    -1.604000000    -0.283000000    -0.429000000
H    -2.047000000     0.442000000     0.249000000
C    -2.342000000    -0.997000000    -1.313000000
H    -3.402000000    -0.791000000    -1.437000000
C    -1.709000000    -1.759000000    -2.241000000
C    -2.469000000    -2.633000000    -3.215000000
O    -3.680000000    -2.440000000    -3.390000000
O    -1.922000000    -3.434000000    -3.916000000
