14
-83.39330
C     0.103000000    -1.711000000    -2.278000000
H     0.479000000    -2.255000000    -3.141000000
C     1.035000000    -1.061000000    -1.528000000
H     2.071000000    -1.280000000    -1.773000000
C     0.642000000    -0.198000000    -0.550000000
H     1.363000000     0.448000000    -0.044000000
C    -0.689000000    -0.110000000    -0.316000000
H    -0.951000000     0.435000000     0.587000000
C    -1.651000000    -0.859000000    -0.979000000
H    -2.678000000    -0.839000000    -0.623000000
C    -1.241000000    -1.660000000    -2.013000000
C    -2.341000000    -2.290000000    -2.869000000
O    -3.508000000    -2.173000000    -2.606000000
O    -2.037000000    -2.864000000    -3.950000000
