14
-83.92842
C     0.434000000    -1.277000000    -1.821000000
H     1.043000000    -1.700000000    -2.616000000
C     1.098000000    -0.604000000    -0.766000000
H     2.155000000    -0.385000000    -0.636000000
C     0.357000000    -0.076000000     0.269000000
H     0.810000000     0.382000000     1.165000000
C    -1.080000000    -0.192000000     0.158000000
H    -1.696000000     0.303000000     0.905000000
C    -1.739000000    -0.878000000    -0.876000000
H    -2.821000000    -0.773000000    -0.869000000
C    -0.949000000    -1.470000000    -1.887000000
C    -1.596000000    -2.331000000    -3.054000000
O    -2.754000000    -2.620000000    -3.018000000
O    -0.930000000    -2.752000000    -4.018000000
