14
-86.17926
C    -0.468000000    -2.191000000    -1.805000000
H     0.041000000    -2.801000000    -2.546000000
C     0.342000000    -1.470000000    -0.881000000
H     1.421000000    -1.483000000    -1.014000000
C    -0.269000000    -0.549000000    -0.027000000
H     0.357000000     0.103000000     0.555000000
C    -1.655000000    -0.512000000    -0.011000000
H    -2.163000000     0.059000000     0.761000000
C    -2.422000000    -1.253000000    -0.904000000
H    -3.490000000    -1.066000000    -0.977000000
C    -1.843000000    -2.128000000    -1.812000000
C    -2.633000000    -2.765000000    -2.892000000
O    -3.825000000    -2.699000000    -2.902000000
O    -2.094000000    -3.385000000    -3.816000000
