14
-88.19043
C     0.712000000    -1.271000000    -1.862000000
H     1.238000000    -1.907000000    -2.569000000
C     1.478000000    -0.544000000    -0.899000000
H     2.558000000    -0.479000000    -1.001000000
C     0.899000000     0.173000000     0.166000000
H     1.512000000     0.727000000     0.775000000
C    -0.464000000     0.201000000     0.257000000
H    -0.961000000     0.712000000     1.077000000
C    -1.217000000    -0.517000000    -0.673000000
H    -2.297000000    -0.420000000    -0.598000000
C    -0.676000000    -1.308000000    -1.683000000
C    -1.628000000    -2.074000000    -2.608000000
O    -2.812000000    -1.957000000    -2.630000000
O    -1.059000000    -2.843000000    -3.406000000
