14
-85.07893
C     1.022000000    -0.848000000    -1.840000000
H     1.518000000    -0.914000000    -2.804000000
C     1.628000000    -0.398000000    -0.708000000
H     2.701000000    -0.242000000    -0.645000000
C     0.901000000     0.115000000     0.343000000
H     1.424000000     0.557000000     1.214000000
C    -0.511000000     0.090000000     0.337000000
H    -1.032000000     0.593000000     1.147000000
C    -1.141000000    -0.526000000    -0.732000000
H    -2.227000000    -0.520000000    -0.780000000
C    -0.355000000    -1.030000000    -1.823000000
C    -1.103000000    -1.707000000    -2.995000000
O    -2.308000000    -1.788000000    -3.049000000
O    -0.463000000    -2.297000000    -3.846000000
