14
-89.47255
C     0.543000000    -1.084000000    -2.058000000
H     1.266000000    -1.390000000    -2.810000000
C     1.171000000    -0.572000000    -0.878000000
H     2.254000000    -0.588000000    -0.785000000
C     0.370000000    -0.070000000     0.164000000
H     0.847000000     0.344000000     1.040000000
C    -1.055000000    -0.182000000     0.023000000
H    -1.642000000     0.307000000     0.796000000
C    -1.575000000    -0.813000000    -1.116000000
H    -2.638000000    -1.034000000    -1.063000000
C    -0.824000000    -1.120000000    -2.211000000
C    -1.329000000    -1.798000000    -3.468000000
O    -2.552000000    -1.759000000    -3.633000000
O    -0.561000000    -2.309000000    -4.291000000
