14
-88.99901
C     0.879000000    -1.342000000    -1.685000000
H     1.479000000    -1.864000000    -2.426000000
C     1.537000000    -0.659000000    -0.680000000
H     2.615000000    -0.788000000    -0.639000000
C     0.735000000    -0.011000000     0.267000000
H     1.264000000     0.642000000     1.021000000
C    -0.647000000    -0.060000000     0.264000000
H    -1.244000000     0.453000000     1.014000000
C    -1.268000000    -0.867000000    -0.742000000
H    -2.349000000    -0.981000000    -0.738000000
C    -0.503000000    -1.481000000    -1.700000000
C    -1.112000000    -2.377000000    -2.802000000
O    -2.298000000    -2.564000000    -2.860000000
O    -0.409000000    -2.768000000    -3.729000000
