14
-89.48869
C     0.498000000    -1.468000000    -2.170000000
H     0.956000000    -2.190000000    -2.842000000
C     1.134000000    -1.000000000    -0.962000000
H     2.162000000    -1.197000000    -0.669000000
C     0.453000000    -0.166000000    -0.113000000
H     0.875000000     0.176000000     0.828000000
C    -0.808000000     0.324000000    -0.498000000
H    -1.462000000     0.894000000     0.157000000
C    -1.373000000    -0.026000000    -1.694000000
H    -2.365000000     0.282000000    -2.014000000
C    -0.735000000    -1.004000000    -2.489000000
C    -1.335000000    -1.376000000    -3.855000000
O    -2.067000000    -0.612000000    -4.467000000
O    -0.991000000    -2.432000000    -4.375000000
