14
-86.89134
C     0.888000000    -1.208000000    -2.054000000
H     1.346000000    -1.805000000    -2.838000000
C     1.575000000    -0.979000000    -0.867000000
H     2.532000000    -1.486000000    -0.770000000
C     1.000000000    -0.224000000     0.202000000
H     1.473000000    -0.221000000     1.166000000
C    -0.254000000     0.375000000     0.009000000
H    -0.832000000     0.868000000     0.786000000
C    -0.893000000     0.176000000    -1.240000000
H    -1.918000000     0.503000000    -1.394000000
C    -0.418000000    -0.654000000    -2.205000000
C    -1.163000000    -0.842000000    -3.469000000
O    -2.353000000    -0.701000000    -3.523000000
O    -0.512000000    -1.349000000    -4.364000000
