14
-83.22513
C    -0.505000000     0.145000000    -2.577000000
H    -1.007000000     0.070000000    -3.539000000
C    -1.197000000    -0.376000000    -1.475000000
H    -2.193000000    -0.798000000    -1.588000000
C    -0.586000000    -0.303000000    -0.250000000
H    -1.116000000    -0.876000000     0.603000000
C     0.673000000     0.230000000    -0.118000000
H     1.198000000     0.255000000     0.834000000
C     1.319000000     0.793000000    -1.194000000
H     2.263000000     1.314000000    -1.056000000
C     0.745000000     0.788000000    -2.456000000
C     1.376000000     1.569000000    -3.588000000
O     2.355000000     2.215000000    -3.428000000
O     0.810000000     1.639000000    -4.652000000
