14
-84.99105
C     0.925000000    -0.564000000    -2.684000000
H     1.572000000    -0.795000000    -3.526000000
C     1.378000000    -0.744000000    -1.372000000
H     2.380000000    -1.094000000    -1.134000000
C     0.637000000    -0.400000000    -0.309000000
H     0.950000000    -0.745000000     0.713000000
C    -0.598000000     0.179000000    -0.482000000
H    -1.199000000     0.431000000     0.388000000
C    -1.089000000     0.377000000    -1.778000000
H    -2.108000000     0.698000000    -1.975000000
C    -0.371000000    -0.019000000    -2.906000000
C    -0.973000000     0.060000000    -4.268000000
O    -2.121000000     0.412000000    -4.352000000
O    -0.332000000    -0.130000000    -5.270000000
