14
-87.80482
C     0.760000000    -0.717000000    -1.973000000
H     1.553000000    -1.084000000    -2.619000000
C     0.934000000    -0.547000000    -0.610000000
H     1.872000000    -0.838000000    -0.145000000
C    -0.078000000    -0.075000000     0.151000000
H     0.039000000     0.009000000     1.220000000
C    -1.299000000     0.330000000    -0.381000000
H    -1.984000000     0.959000000     0.183000000
C    -1.477000000     0.250000000    -1.722000000
H    -2.331000000     0.753000000    -2.168000000
C    -0.495000000    -0.327000000    -2.528000000
C    -0.687000000    -0.533000000    -4.015000000
O    -1.706000000    -0.055000000    -4.561000000
O     0.193000000    -1.002000000    -4.773000000
