14
-85.17837
C     0.635000000    -0.838000000    -2.466000000
H     1.429000000    -1.146000000    -3.142000000
C     0.868000000    -0.842000000    -1.121000000
H     1.853000000    -1.193000000    -0.825000000
C    -0.085000000    -0.303000000    -0.267000000
H     0.187000000    -0.362000000     0.807000000
C    -1.182000000     0.337000000    -0.821000000
H    -1.772000000     0.902000000    -0.103000000
C    -1.532000000     0.250000000    -2.154000000
H    -2.494000000     0.615000000    -2.506000000
C    -0.568000000    -0.345000000    -2.978000000
C    -0.816000000    -0.414000000    -4.468000000
O    -1.935000000    -0.250000000    -4.904000000
O     0.122000000    -0.582000000    -5.170000000
