14
-83.23891
C     1.300000000    -1.510000000    -2.517000000
H     1.976000000    -2.321000000    -2.776000000
C     1.109000000    -1.178000000    -1.143000000
H     1.595000000    -1.781000000    -0.380000000
C     0.336000000    -0.049000000    -0.763000000
H     0.408000000     0.390000000     0.214000000
C    -0.282000000     0.642000000    -1.723000000
H    -0.953000000     1.437000000    -1.406000000
C    -0.211000000     0.218000000    -3.047000000
H    -0.926000000     0.740000000    -3.678000000
C     0.729000000    -0.734000000    -3.493000000
C     0.727000000    -1.006000000    -4.972000000
O     0.338000000    -0.128000000    -5.721000000
O     1.235000000    -2.033000000    -5.421000000
