14
-80.26702
C     1.349000000    -1.152000000    -1.859000000
H     2.223000000    -1.790000000    -1.959000000
C     0.697000000    -1.000000000    -0.646000000
H     1.038000000    -1.619000000     0.179000000
C    -0.282000000    -0.097000000    -0.417000000
H    -0.603000000     0.056000000     0.644000000
C    -0.691000000     0.708000000    -1.507000000
H    -1.338000000     1.559000000    -1.309000000
C    -0.236000000     0.444000000    -2.830000000
H    -0.688000000     0.994000000    -3.651000000
C     0.865000000    -0.434000000    -3.030000000
C     1.380000000    -0.588000000    -4.437000000
O     1.211000000     0.237000000    -5.265000000
O     1.845000000    -1.663000000    -4.769000000
