14
-81.77301
C     1.465000000    -0.523000000    -1.181000000
H     2.205000000    -1.316000000    -1.257000000
C     0.806000000    -0.444000000     0.035000000
H     1.087000000    -1.100000000     0.854000000
C    -0.243000000     0.456000000     0.136000000
H    -0.894000000     0.473000000     0.964000000
C    -0.559000000     1.341000000    -0.882000000
H    -1.407000000     2.008000000    -0.746000000
C     0.146000000     1.284000000    -2.085000000
H     0.001000000     1.992000000    -2.897000000
C     1.135000000     0.369000000    -2.240000000
C     2.097000000     0.305000000    -3.426000000
O     2.304000000     1.192000000    -4.246000000
O     2.735000000    -0.692000000    -3.634000000
