14
-91.73369
C     2.023000000    -0.749000000    -1.648000000
H     2.828000000    -1.470000000    -1.765000000
C     1.440000000    -0.689000000    -0.376000000
H     1.827000000    -1.325000000     0.415000000
C     0.360000000     0.186000000    -0.114000000
H    -0.045000000     0.231000000     0.884000000
C    -0.132000000     0.948000000    -1.204000000
H    -0.979000000     1.568000000    -0.924000000
C     0.414000000     0.907000000    -2.482000000
H    -0.076000000     1.424000000    -3.302000000
C     1.560000000     0.093000000    -2.683000000
C     2.165000000    -0.020000000    -4.071000000
O     1.848000000     0.803000000    -4.939000000
O     2.956000000    -0.897000000    -4.353000000
