14
-86.34607
C     1.352000000     0.354000000    -1.725000000
H     2.431000000     0.252000000    -1.815000000
C     0.755000000     0.322000000    -0.440000000
H     1.320000000     0.108000000     0.464000000
C    -0.593000000     0.597000000    -0.270000000
H    -1.013000000     0.587000000     0.710000000
C    -1.401000000     0.805000000    -1.406000000
H    -2.395000000     1.204000000    -1.220000000
C    -0.796000000     0.894000000    -2.709000000
H    -1.398000000     1.259000000    -3.537000000
C     0.549000000     0.646000000    -2.851000000
C     1.177000000     0.725000000    -4.209000000
O     0.448000000     0.765000000    -5.170000000
O     2.339000000     0.336000000    -4.282000000
