14
-92.55534
C     1.420000000    -0.786000000    -1.373000000
H     2.178000000    -1.503000000    -1.677000000
C     0.971000000    -0.762000000    -0.040000000
H     1.498000000    -1.316000000     0.733000000
C     0.021000000     0.188000000     0.383000000
H    -0.226000000     0.203000000     1.395000000
C    -0.593000000     1.056000000    -0.522000000
H    -1.414000000     1.651000000    -0.132000000
C    -0.166000000     1.093000000    -1.857000000
H    -0.521000000     1.891000000    -2.504000000
C     0.827000000     0.163000000    -2.295000000
C     1.355000000     0.138000000    -3.788000000
O     0.846000000     1.001000000    -4.542000000
O     2.262000000    -0.685000000    -4.106000000
