14
-84.96615
C     0.050000000    -0.551000000    -2.531000000
H    -0.329000000    -1.098000000    -3.391000000
C    -0.599000000    -0.738000000    -1.256000000
H    -1.449000000    -1.412000000    -1.185000000
C     0.021000000    -0.100000000    -0.157000000
H    -0.355000000    -0.326000000     0.820000000
C     1.141000000     0.655000000    -0.307000000
H     1.582000000     1.193000000     0.528000000
C     1.672000000     0.917000000    -1.555000000
H     2.504000000     1.617000000    -1.558000000
C     1.150000000     0.343000000    -2.715000000
C     1.709000000     0.659000000    -4.037000000
O     2.840000000     1.082000000    -4.049000000
O     1.065000000     0.569000000    -5.047000000
