14
-83.11671
C     1.427000000    -0.752000000    -0.892000000
H     2.394000000    -1.245000000    -0.950000000
C     0.888000000    -0.434000000     0.315000000
H     1.460000000    -0.769000000     1.177000000
C    -0.358000000     0.109000000     0.435000000
H    -0.956000000     0.141000000     1.325000000
C    -1.020000000     0.501000000    -0.724000000
H    -2.026000000     0.913000000    -0.707000000
C    -0.404000000     0.394000000    -2.002000000
H    -0.730000000     0.832000000    -2.942000000
C     0.806000000    -0.321000000    -2.099000000
C     1.472000000    -0.581000000    -3.456000000
O     0.796000000    -0.515000000    -4.455000000
O     2.631000000    -1.085000000    -3.625000000
