14
-83.10564
C    -0.089000000    -1.929000000    -1.673000000
H     0.698000000    -2.672000000    -1.575000000
C    -0.337000000    -1.101000000    -0.645000000
H     0.302000000    -1.166000000     0.231000000
C    -1.268000000    -0.006000000    -0.766000000
H    -1.267000000     0.809000000    -0.010000000
C    -1.956000000     0.169000000    -1.920000000
H    -2.734000000     0.928000000    -1.914000000
C    -1.744000000    -0.708000000    -2.946000000
H    -2.335000000    -0.606000000    -3.853000000
C    -0.758000000    -1.728000000    -2.917000000
C    -0.411000000    -2.495000000    -4.138000000
O    -0.876000000    -2.048000000    -5.161000000
O     0.518000000    -3.316000000    -4.175000000
