14
-83.85619
C    -0.057000000    -0.029000000    -2.991000000
H    -0.508000000    -0.186000000    -3.968000000
C    -0.874000000    -0.035000000    -1.831000000
H    -1.952000000    -0.176000000    -1.862000000
C    -0.358000000     0.122000000    -0.556000000
H    -1.008000000     0.141000000     0.340000000
C     1.028000000     0.296000000    -0.477000000
H     1.609000000     0.499000000     0.420000000
C     1.854000000     0.308000000    -1.583000000
H     2.917000000     0.523000000    -1.512000000
C     1.354000000     0.225000000    -2.903000000
C     2.133000000     0.476000000    -4.126000000
O     3.288000000     0.716000000    -3.893000000
O     1.751000000     0.210000000    -5.263000000
