14
-85.89050
C     0.382000000    -1.836000000    -1.040000000
H     1.209000000    -2.542000000    -1.056000000
C     0.426000000    -0.808000000    -0.143000000
H     1.273000000    -0.771000000     0.536000000
C    -0.607000000     0.119000000    -0.065000000
H    -0.625000000     0.941000000     0.573000000
C    -1.466000000     0.187000000    -1.126000000
H    -2.095000000     1.070000000    -1.210000000
C    -1.464000000    -0.773000000    -2.127000000
H    -1.989000000    -0.564000000    -3.055000000
C    -0.641000000    -1.864000000    -2.035000000
C    -0.646000000    -2.857000000    -3.182000000
O    -1.425000000    -2.780000000    -4.130000000
O     0.181000000    -3.774000000    -3.140000000
