14
-85.70732
C     1.304000000    -1.827000000    -0.823000000
H     2.257000000    -2.318000000    -0.643000000
C     0.857000000    -0.752000000    -0.048000000
H     1.565000000    -0.530000000     0.748000000
C    -0.405000000    -0.221000000    -0.312000000
H    -0.896000000     0.540000000     0.362000000
C    -1.219000000    -0.717000000    -1.364000000
H    -2.231000000    -0.331000000    -1.454000000
C    -0.750000000    -1.754000000    -2.111000000
H    -1.446000000    -2.108000000    -2.867000000
C     0.560000000    -2.244000000    -1.957000000
C     1.097000000    -3.300000000    -2.981000000
O     0.590000000    -3.496000000    -4.056000000
O     2.102000000    -3.980000000    -2.688000000
