14
-76.12384
C     1.288000000    -2.309000000    -0.925000000
H     2.268000000    -2.731000000    -0.722000000
C     1.013000000    -1.074000000    -0.282000000
H     1.757000000    -0.640000000     0.381000000
C    -0.155000000    -0.407000000    -0.550000000
H    -0.382000000     0.563000000    -0.128000000
C    -0.860000000    -0.804000000    -1.678000000
H    -1.713000000    -0.203000000    -1.983000000
C    -0.674000000    -2.020000000    -2.273000000
H    -1.261000000    -2.331000000    -3.133000000
C     0.413000000    -2.767000000    -1.929000000
C     0.825000000    -3.914000000    -2.727000000
O     0.328000000    -4.086000000    -3.770000000
O     1.834000000    -4.581000000    -2.433000000
