14
-81.86344
C    -0.774000000    -0.027000000    -3.100000000
H    -1.237000000    -0.053000000    -4.083000000
C    -1.557000000    -0.075000000    -1.926000000
H    -2.639000000     0.033000000    -1.929000000
C    -0.930000000    -0.226000000    -0.671000000
H    -1.578000000    -0.421000000     0.150000000
C     0.454000000    -0.241000000    -0.578000000
H     0.939000000    -0.242000000     0.395000000
C     1.206000000    -0.168000000    -1.735000000
H     2.290000000    -0.114000000    -1.797000000
C     0.648000000    -0.185000000    -3.010000000
C     1.480000000     0.043000000    -4.182000000
O     2.677000000    -0.039000000    -4.150000000
O     0.995000000     0.249000000    -5.295000000
