14
-89.60098
C    -0.444000000    -1.582000000    -0.793000000
H    -0.724000000    -2.629000000    -0.713000000
C    -0.235000000    -0.784000000     0.381000000
H    -0.413000000    -1.092000000     1.408000000
C     0.121000000     0.613000000     0.251000000
H     0.300000000     1.256000000     1.090000000
C     0.338000000     1.177000000    -0.997000000
H     0.664000000     2.199000000    -1.173000000
C     0.184000000     0.295000000    -2.117000000
H     0.317000000     0.696000000    -3.119000000
C    -0.259000000    -0.962000000    -2.021000000
C    -0.404000000    -1.795000000    -3.296000000
O    -0.724000000    -1.241000000    -4.383000000
O    -0.127000000    -3.011000000    -3.266000000
