14
-84.10719
C     0.475000000    -2.467000000    -0.780000000
H     0.429000000    -3.550000000    -0.700000000
C    -0.157000000    -1.541000000     0.114000000
H    -0.704000000    -1.950000000     0.959000000
C     0.077000000    -0.184000000    -0.037000000
H    -0.298000000     0.495000000     0.709000000
C     0.754000000     0.355000000    -1.087000000
H     0.903000000     1.426000000    -1.191000000
C     1.337000000    -0.531000000    -2.029000000
H     1.969000000    -0.245000000    -2.866000000
C     1.277000000    -1.932000000    -1.843000000
C     2.001000000    -2.848000000    -2.828000000
O     2.935000000    -2.422000000    -3.487000000
O     1.396000000    -3.810000000    -3.173000000
