14
-91.96957
C     1.366000000    -1.836000000    -0.242000000
H     1.680000000    -2.636000000     0.424000000
C     0.729000000    -0.732000000     0.329000000
H     0.390000000    -0.667000000     1.359000000
C     0.504000000     0.435000000    -0.483000000
H     0.069000000     1.325000000    -0.030000000
C     0.797000000     0.418000000    -1.870000000
H     0.569000000     1.241000000    -2.542000000
C     1.413000000    -0.701000000    -2.367000000
H     1.807000000    -0.704000000    -3.379000000
C     1.697000000    -1.813000000    -1.564000000
C     2.400000000    -3.014000000    -2.207000000
O     2.634000000    -2.972000000    -3.400000000
O     2.553000000    -4.051000000    -1.555000000
