14
-88.17144
C     1.298000000    -1.651000000    -0.822000000
H     1.047000000    -2.692000000    -0.636000000
C     0.319000000    -0.765000000    -0.389000000
H    -0.555000000    -1.018000000     0.207000000
C     0.555000000     0.633000000    -0.629000000
H    -0.159000000     1.293000000    -0.224000000
C     1.598000000     1.015000000    -1.429000000
H     1.795000000     2.034000000    -1.752000000
C     2.456000000     0.056000000    -1.919000000
H     3.230000000     0.361000000    -2.619000000
C     2.338000000    -1.295000000    -1.607000000
C     3.160000000    -2.354000000    -2.393000000
O     4.040000000    -1.972000000    -3.148000000
O     2.772000000    -3.512000000    -2.381000000
