14
-84.77049
C     0.531000000    -2.334000000    -1.005000000
H    -0.313000000    -2.999000000    -1.172000000
C     0.146000000    -1.096000000    -0.510000000
H    -0.915000000    -0.863000000    -0.452000000
C     1.070000000    -0.161000000    -0.127000000
H     0.816000000     0.875000000     0.270000000
C     2.441000000    -0.522000000    -0.199000000
H     3.182000000     0.166000000     0.201000000
C     2.855000000    -1.804000000    -0.677000000
H     3.885000000    -2.120000000    -0.816000000
C     1.889000000    -2.677000000    -1.221000000
C     2.275000000    -3.865000000    -2.092000000
O     3.354000000    -4.385000000    -1.868000000
O     1.614000000    -4.177000000    -3.024000000
