14
-87.92414
C     1.037000000    -1.737000000    -0.089000000
H     0.842000000    -2.663000000     0.445000000
C     0.318000000    -0.616000000     0.192000000
H    -0.507000000    -0.665000000     0.898000000
C     0.656000000     0.612000000    -0.375000000
H     0.136000000     1.566000000    -0.131000000
C     1.628000000     0.654000000    -1.342000000
H     1.814000000     1.627000000    -1.789000000
C     2.404000000    -0.492000000    -1.686000000
H     3.148000000    -0.467000000    -2.479000000
C     2.080000000    -1.693000000    -1.045000000
C     2.813000000    -2.966000000    -1.380000000
O     3.884000000    -2.929000000    -1.943000000
O     2.244000000    -4.058000000    -1.340000000
