14
-87.36020
C     0.648000000    -2.529000000    -1.789000000
H     0.385000000    -3.224000000    -2.582000000
C    -0.298000000    -1.674000000    -1.249000000
H    -1.353000000    -1.731000000    -1.506000000
C     0.118000000    -0.753000000    -0.236000000
H    -0.584000000    -0.078000000     0.256000000
C     1.440000000    -0.619000000     0.158000000
H     1.749000000     0.183000000     0.824000000
C     2.391000000    -1.496000000    -0.463000000
H     3.405000000    -1.485000000    -0.070000000
C     2.016000000    -2.523000000    -1.352000000
C     3.052000000    -3.437000000    -2.008000000
O     4.219000000    -3.356000000    -1.770000000
O     2.649000000    -4.162000000    -2.885000000
