14
-77.90773
C     0.684000000    -1.931000000    -1.184000000
H     1.048000000    -2.950000000    -1.286000000
C     0.559000000    -1.387000000     0.141000000
H     0.831000000    -1.969000000     1.018000000
C     0.097000000    -0.038000000     0.352000000
H    -0.071000000     0.396000000     1.355000000
C    -0.124000000     0.739000000    -0.798000000
H    -0.411000000     1.776000000    -0.646000000
C    -0.071000000     0.267000000    -2.077000000
H    -0.337000000     1.009000000    -2.825000000
C     0.405000000    -1.064000000    -2.317000000
C     0.645000000    -1.524000000    -3.677000000
O     0.002000000    -1.100000000    -4.636000000
O     1.278000000    -2.530000000    -3.864000000
