14
-90.87825
C    -0.519000000    -1.974000000    -0.995000000
H    -1.280000000    -2.668000000    -1.342000000
C    -0.848000000    -0.741000000    -0.482000000
H    -1.889000000    -0.457000000    -0.348000000
C     0.169000000     0.193000000    -0.147000000
H    -0.118000000     1.153000000     0.228000000
C     1.491000000    -0.151000000    -0.337000000
H     2.218000000     0.576000000     0.016000000
C     1.820000000    -1.408000000    -0.848000000
H     2.866000000    -1.704000000    -0.851000000
C     0.823000000    -2.295000000    -1.287000000
C     1.178000000    -3.527000000    -2.016000000
O     2.401000000    -3.691000000    -2.217000000
O     0.347000000    -4.189000000    -2.586000000
