14
-86.39922
C     1.686000000    -0.605000000    -1.960000000
H     2.643000000    -0.574000000    -2.475000000
C     1.565000000     0.038000000    -0.752000000
H     2.528000000     0.349000000    -0.355000000
C     0.344000000     0.208000000    -0.146000000
H     0.233000000     0.780000000     0.781000000
C    -0.794000000    -0.320000000    -0.746000000
H    -1.768000000    -0.187000000    -0.280000000
C    -0.704000000    -0.924000000    -2.006000000
H    -1.580000000    -1.385000000    -2.455000000
C     0.537000000    -1.146000000    -2.638000000
C     0.673000000    -1.896000000    -3.889000000
O    -0.215000000    -2.013000000    -4.735000000
O     1.762000000    -2.360000000    -4.055000000
