14
-86.83040
C     0.863000000    -2.113000000    -1.231000000
H     1.327000000    -3.088000000    -1.352000000
C     1.073000000    -1.500000000    -0.026000000
H     1.577000000    -2.064000000     0.755000000
C     0.516000000    -0.288000000     0.260000000
H     0.619000000     0.111000000     1.241000000
C    -0.220000000     0.363000000    -0.761000000
H    -0.625000000     1.333000000    -0.486000000
C    -0.468000000    -0.235000000    -1.988000000
H    -1.161000000     0.176000000    -2.718000000
C     0.207000000    -1.468000000    -2.214000000
C    -0.167000000    -2.135000000    -3.514000000
O    -0.915000000    -1.613000000    -4.337000000
O     0.406000000    -3.182000000    -3.832000000
