14
-76.83576
C     1.580000000    -1.080000000    -0.767000000
H     2.632000000    -1.306000000    -0.916000000
C     1.252000000     0.049000000    -0.097000000
H     2.019000000     0.729000000     0.263000000
C    -0.048000000     0.378000000     0.170000000
H    -0.400000000     1.211000000     0.702000000
C    -1.009000000    -0.441000000    -0.401000000
H    -2.045000000    -0.124000000    -0.310000000
C    -0.707000000    -1.601000000    -1.119000000
H    -1.432000000    -2.329000000    -1.472000000
C     0.634000000    -1.907000000    -1.389000000
C     0.992000000    -3.172000000    -2.143000000
O     0.141000000    -3.748000000    -2.761000000
O     2.124000000    -3.314000000    -2.507000000
