14
-85.66712
C     1.257000000    -1.739000000    -1.477000000
H     2.097000000    -2.343000000    -1.810000000
C     1.355000000    -0.989000000    -0.312000000
H     2.284000000    -1.010000000     0.252000000
C     0.272000000    -0.237000000     0.151000000
H     0.313000000     0.207000000     1.106000000
C    -0.942000000    -0.298000000    -0.499000000
H    -1.721000000     0.214000000     0.061000000
C    -1.131000000    -1.123000000    -1.644000000
H    -2.038000000    -1.199000000    -2.237000000
C     0.051000000    -1.789000000    -2.157000000
C    -0.027000000    -2.591000000    -3.448000000
O    -1.088000000    -2.604000000    -4.036000000
O     0.895000000    -3.285000000    -3.959000000
