14
-83.82298
C     1.909000000    -2.477000000    -0.350000000
H     2.981000000    -2.658000000    -0.351000000
C     1.485000000    -1.141000000    -0.182000000
H     2.235000000    -0.361000000    -0.077000000
C     0.112000000    -0.844000000    -0.149000000
H    -0.169000000     0.192000000    -0.063000000
C    -0.884000000    -1.817000000    -0.250000000
H    -1.923000000    -1.497000000    -0.231000000
C    -0.410000000    -3.125000000    -0.488000000
H    -1.124000000    -3.889000000    -0.787000000
C     0.929000000    -3.466000000    -0.445000000
C     1.329000000    -4.970000000    -0.717000000
O     0.487000000    -5.832000000    -0.825000000
O     2.455000000    -5.221000000    -0.860000000
