14
-89.31006
C     1.192000000    -0.870000000    -1.717000000
H     1.984000000    -1.038000000    -2.442000000
C     1.180000000     0.114000000    -0.744000000
H     1.993000000     0.835000000    -0.731000000
C     0.101000000     0.290000000     0.124000000
H     0.251000000     1.155000000     0.783000000
C    -1.047000000    -0.480000000    -0.030000000
H    -1.841000000    -0.381000000     0.705000000
C    -1.061000000    -1.507000000    -0.919000000
H    -1.943000000    -2.142000000    -0.948000000
C     0.055000000    -1.747000000    -1.770000000
C     0.062000000    -2.994000000    -2.625000000
O    -0.982000000    -3.337000000    -3.129000000
O     1.147000000    -3.524000000    -2.924000000
