14
-87.70011
C     1.135000000    -1.589000000    -0.467000000
H     2.212000000    -1.597000000    -0.618000000
C     0.483000000    -0.438000000     0.001000000
H     0.972000000     0.531000000     0.059000000
C    -0.923000000    -0.535000000     0.268000000
H    -1.409000000     0.318000000     0.740000000
C    -1.671000000    -1.664000000    -0.160000000
H    -2.740000000    -1.762000000     0.010000000
C    -1.042000000    -2.756000000    -0.669000000
H    -1.654000000    -3.524000000    -1.136000000
C     0.352000000    -2.781000000    -0.702000000
C     0.933000000    -4.030000000    -1.307000000
O     0.141000000    -4.931000000    -1.635000000
O     2.122000000    -4.088000000    -1.517000000
