14
-81.17850
C     1.475000000    -2.647000000    -0.351000000
H     2.529000000    -2.819000000    -0.145000000
C     0.913000000    -1.407000000    -0.076000000
H     1.493000000    -0.583000000     0.331000000
C    -0.454000000    -1.165000000    -0.287000000
H    -1.008000000    -0.271000000     0.038000000
C    -1.177000000    -2.261000000    -0.799000000
H    -2.199000000    -2.079000000    -1.121000000
C    -0.636000000    -3.506000000    -1.091000000
H    -1.167000000    -4.293000000    -1.620000000
C     0.707000000    -3.725000000    -0.827000000
C     1.302000000    -5.038000000    -1.099000000
O     0.736000000    -5.987000000    -1.541000000
O     2.483000000    -5.281000000    -0.793000000
