14
-86.36942
C     1.769000000    -1.642000000    -1.624000000
H     2.712000000    -1.823000000    -2.135000000
C     1.618000000    -0.339000000    -1.208000000
H     2.389000000     0.425000000    -1.148000000
C     0.419000000    -0.012000000    -0.439000000
H     0.306000000     1.074000000     0.006000000
C    -0.595000000    -0.992000000    -0.279000000
H    -1.512000000    -0.748000000     0.250000000
C    -0.406000000    -2.292000000    -0.801000000
H    -1.206000000    -3.025000000    -0.736000000
C     0.797000000    -2.622000000    -1.474000000
C     1.017000000    -4.062000000    -1.960000000
O     0.055000000    -4.832000000    -2.005000000
O     2.102000000    -4.462000000    -2.373000000
