14
-87.00330
C     1.736000000    -1.662000000     0.055000000
H     2.586000000    -2.253000000    -0.273000000
C     1.799000000    -0.291000000    -0.014000000
H     2.716000000     0.205000000    -0.324000000
C     0.581000000     0.383000000     0.222000000
H     0.466000000     1.416000000    -0.022000000
C    -0.569000000    -0.192000000     0.687000000
H    -1.430000000     0.428000000     0.923000000
C    -0.544000000    -1.585000000     0.823000000
H    -1.468000000    -2.058000000     1.146000000
C     0.615000000    -2.393000000     0.531000000
C     0.609000000    -3.913000000     0.772000000
O    -0.431000000    -4.486000000     0.921000000
O     1.678000000    -4.515000000     0.665000000
