14
-82.60382
C     1.841000000    -0.977000000    -0.082000000
H     2.822000000    -0.568000000    -0.310000000
C     0.806000000     0.007000000    -0.015000000
H     0.958000000     1.027000000    -0.360000000
C    -0.455000000    -0.422000000     0.502000000
H    -1.220000000     0.291000000     0.564000000
C    -0.590000000    -1.758000000     0.878000000
H    -1.528000000    -2.159000000     1.252000000
C     0.418000000    -2.697000000     0.824000000
H     0.206000000    -3.734000000     1.072000000
C     1.645000000    -2.307000000     0.321000000
C     2.646000000    -3.361000000     0.084000000
O     2.315000000    -4.568000000     0.182000000
O     3.710000000    -3.194000000    -0.495000000
