14
-89.06375
C     1.399000000    -1.034000000     0.222000000
H     2.342000000    -0.829000000    -0.278000000
C     0.562000000     0.007000000     0.176000000
H     0.864000000     1.034000000    -0.011000000
C    -0.770000000    -0.251000000     0.578000000
H    -1.390000000     0.644000000     0.534000000
C    -1.222000000    -1.518000000     0.978000000
H    -2.241000000    -1.709000000     1.305000000
C    -0.336000000    -2.601000000     0.928000000
H    -0.687000000    -3.596000000     1.190000000
C     1.027000000    -2.359000000     0.578000000
C     2.021000000    -3.520000000     0.642000000
O     1.680000000    -4.543000000     1.233000000
O     3.083000000    -3.380000000     0.058000000
