14
-76.62119
C     2.521000000    -0.990000000    -0.017000000
H     3.606000000    -0.927000000    -0.019000000
C     1.621000000     0.056000000    -0.206000000
H     1.923000000     1.077000000    -0.425000000
C     0.272000000    -0.085000000     0.020000000
H    -0.392000000     0.845000000     0.015000000
C    -0.247000000    -1.255000000     0.400000000
H    -1.317000000    -1.320000000     0.582000000
C     0.559000000    -2.387000000     0.493000000
H     0.235000000    -3.387000000     0.771000000
C     1.969000000    -2.238000000     0.177000000
C     2.890000000    -3.403000000     0.246000000
O     2.628000000    -4.393000000     0.841000000
O     3.781000000    -3.478000000    -0.611000000
