14
-82.30913
C     2.274000000    -1.739000000    -0.005000000
H     3.118000000    -2.139000000     0.552000000
C     1.462000000    -0.773000000     0.577000000
H     1.779000000    -0.281000000     1.493000000
C     0.281000000    -0.435000000     0.021000000
H    -0.320000000     0.318000000     0.510000000
C    -0.142000000    -1.004000000    -1.164000000
H    -1.098000000    -0.798000000    -1.639000000
C     0.690000000    -2.049000000    -1.664000000
H     0.334000000    -2.516000000    -2.579000000
C     1.896000000    -2.427000000    -1.147000000
C     2.757000000    -3.580000000    -1.775000000
O     2.254000000    -4.445000000    -2.448000000
O     3.836000000    -3.824000000    -1.233000000
