14
-84.28991
C     2.510000000    -1.702000000    -0.690000000
H     3.490000000    -2.048000000    -0.371000000
C     1.964000000    -0.742000000     0.169000000
H     2.302000000    -0.525000000     1.179000000
C     0.761000000    -0.138000000    -0.229000000
H     0.340000000     0.506000000     0.536000000
C     0.099000000    -0.489000000    -1.343000000
H    -0.884000000    -0.142000000    -1.651000000
C     0.537000000    -1.531000000    -2.128000000
H    -0.044000000    -1.915000000    -2.963000000
C     1.764000000    -2.187000000    -1.779000000
C     2.356000000    -3.261000000    -2.610000000
O     1.640000000    -3.869000000    -3.378000000
O     3.553000000    -3.510000000    -2.544000000
