14
-90.74740
C     1.486000000    -2.262000000    -0.090000000
H     2.206000000    -3.043000000     0.140000000
C     1.196000000    -1.282000000     0.870000000
H     1.784000000    -1.272000000     1.785000000
C     0.262000000    -0.287000000     0.466000000
H     0.016000000     0.536000000     1.107000000
C    -0.348000000    -0.268000000    -0.773000000
H    -0.934000000     0.620000000    -0.996000000
C    -0.073000000    -1.252000000    -1.679000000
H    -0.456000000    -1.155000000    -2.692000000
C     0.850000000    -2.328000000    -1.367000000
C     1.209000000    -3.381000000    -2.391000000
O     0.885000000    -3.241000000    -3.576000000
O     1.986000000    -4.317000000    -2.029000000
