14
-81.06591
C     0.997000000    -2.357000000    -0.466000000
H     1.724000000    -3.029000000    -0.017000000
C     0.811000000    -1.134000000     0.172000000
H     1.283000000    -0.965000000     1.137000000
C     0.083000000    -0.069000000    -0.477000000
H     0.094000000     0.944000000    -0.197000000
C    -0.501000000    -0.238000000    -1.734000000
H    -1.079000000     0.551000000    -2.208000000
C    -0.398000000    -1.534000000    -2.338000000
H    -0.871000000    -1.697000000    -3.303000000
C     0.456000000    -2.528000000    -1.768000000
C     0.835000000    -3.756000000    -2.520000000
O     0.471000000    -3.888000000    -3.648000000
O     1.627000000    -4.537000000    -2.052000000
