14
-84.27474
C     2.274000000    -2.409000000    -1.722000000
H     2.807000000    -3.355000000    -1.668000000
C     1.728000000    -1.885000000    -0.512000000
H     1.889000000    -2.433000000     0.412000000
C     0.969000000    -0.713000000    -0.501000000
H     0.655000000    -0.288000000     0.459000000
C     0.801000000    -0.027000000    -1.720000000
H     0.169000000     0.858000000    -1.738000000
C     1.259000000    -0.576000000    -2.908000000
H     1.032000000     0.000000000    -3.801000000
C     1.967000000    -1.748000000    -2.926000000
C     2.502000000    -2.108000000    -4.269000000
O     2.417000000    -1.400000000    -5.225000000
O     3.160000000    -3.139000000    -4.414000000
