14
-89.64878
C     1.450000000    -1.918000000    -1.945000000
H     1.577000000    -2.927000000    -2.330000000
C     0.709000000    -1.727000000    -0.750000000
H     0.490000000    -2.540000000    -0.063000000
C     0.384000000    -0.449000000    -0.416000000
H    -0.218000000    -0.305000000     0.490000000
C     0.740000000     0.675000000    -1.154000000
H     0.516000000     1.694000000    -0.846000000
C     1.552000000     0.428000000    -2.247000000
H     1.896000000     1.284000000    -2.822000000
C     1.863000000    -0.844000000    -2.761000000
C     2.679000000    -1.008000000    -3.993000000
O     3.144000000     0.011000000    -4.452000000
O     2.915000000    -2.110000000    -4.486000000
