14
-86.88725
C     0.748000000    -1.739000000    -1.622000000
H     0.932000000    -2.705000000    -2.085000000
C    -0.270000000    -1.771000000    -0.629000000
H    -0.762000000    -2.731000000    -0.498000000
C    -0.554000000    -0.582000000     0.091000000
H    -1.380000000    -0.604000000     0.716000000
C     0.249000000     0.551000000    -0.146000000
H     0.087000000     1.487000000     0.384000000
C     1.222000000     0.598000000    -1.115000000
H     1.758000000     1.524000000    -1.304000000
C     1.483000000    -0.579000000    -1.892000000
C     2.700000000    -0.592000000    -2.773000000
O     3.447000000     0.367000000    -2.864000000
O     3.031000000    -1.595000000    -3.435000000
