14
-88.30275
C     0.797000000    -1.295000000    -1.669000000
H     0.468000000    -2.235000000    -2.105000000
C     0.110000000    -0.637000000    -0.633000000
H    -0.710000000    -1.067000000    -0.063000000
C     0.414000000     0.670000000    -0.329000000
H    -0.182000000     1.115000000     0.425000000
C     1.593000000     1.248000000    -0.874000000
H     1.930000000     2.201000000    -0.476000000
C     2.359000000     0.495000000    -1.793000000
H     3.348000000     0.904000000    -1.987000000
C     1.918000000    -0.725000000    -2.280000000
C     2.815000000    -1.528000000    -3.139000000
O     3.907000000    -1.053000000    -3.534000000
O     2.485000000    -2.658000000    -3.505000000
