14
-86.80776
C     1.874000000    -1.706000000    -0.573000000
H     2.570000000    -2.540000000    -0.535000000
C     0.773000000    -1.791000000     0.321000000
H     0.746000000    -2.665000000     0.967000000
C    -0.064000000    -0.722000000     0.402000000
H    -0.932000000    -0.632000000     1.136000000
C     0.068000000     0.301000000    -0.473000000
H    -0.593000000     1.158000000    -0.374000000
C     0.997000000     0.262000000    -1.535000000
H     1.063000000     1.084000000    -2.243000000
C     1.964000000    -0.743000000    -1.528000000
C     3.156000000    -0.641000000    -2.402000000
O     3.291000000     0.284000000    -3.204000000
O     3.970000000    -1.573000000    -2.413000000
