14
-89.05952
C     1.715000000    -0.886000000    -1.218000000
H     2.066000000    -1.844000000    -1.593000000
C     0.748000000    -0.822000000    -0.186000000
H     0.282000000    -1.734000000     0.178000000
C     0.188000000     0.387000000     0.270000000
H    -0.582000000     0.431000000     1.098000000
C     0.618000000     1.546000000    -0.301000000
H     0.108000000     2.479000000    -0.074000000
C     1.601000000     1.526000000    -1.260000000
H     1.897000000     2.452000000    -1.747000000
C     2.145000000     0.345000000    -1.736000000
C     3.298000000     0.340000000    -2.713000000
O     3.596000000     1.382000000    -3.258000000
O     3.800000000    -0.720000000    -3.123000000
