14
-89.67174
C     1.842000000    -2.506000000    -0.662000000
H     2.174000000    -3.514000000    -0.897000000
C     0.697000000    -2.400000000     0.140000000
H     0.135000000    -3.238000000     0.545000000
C     0.190000000    -1.165000000     0.388000000
H    -0.743000000    -1.071000000     0.896000000
C     0.917000000    -0.016000000    -0.002000000
H     0.430000000     0.925000000     0.241000000
C     2.099000000    -0.094000000    -0.727000000
H     2.614000000     0.793000000    -1.085000000
C     2.561000000    -1.396000000    -1.052000000
C     3.786000000    -1.647000000    -1.854000000
O     4.318000000    -0.659000000    -2.446000000
O     4.351000000    -2.706000000    -1.827000000
