14
-78.79055
C     1.547000000    -1.654000000    -0.742000000
H     2.125000000    -2.535000000    -1.008000000
C     0.341000000    -1.757000000    -0.111000000
H     0.010000000    -2.729000000     0.246000000
C    -0.461000000    -0.662000000     0.025000000
H    -1.392000000    -0.729000000     0.596000000
C    -0.021000000     0.625000000    -0.436000000
H    -0.669000000     1.495000000    -0.368000000
C     1.266000000     0.743000000    -0.922000000
H     1.792000000     1.657000000    -1.187000000
C     1.959000000    -0.427000000    -1.250000000
C     3.082000000    -0.339000000    -2.223000000
O     3.457000000     0.686000000    -2.740000000
O     3.846000000    -1.270000000    -2.207000000
