14
-90.94563
C     1.782000000    -1.198000000    -0.098000000
H     1.920000000    -2.275000000    -0.134000000
C     0.497000000    -0.719000000     0.094000000
H    -0.339000000    -1.407000000    -0.001000000
C     0.291000000     0.628000000     0.133000000
H    -0.669000000     1.074000000     0.265000000
C     1.387000000     1.538000000     0.116000000
H     1.224000000     2.612000000     0.170000000
C     2.640000000     1.030000000    -0.077000000
H     3.453000000     1.751000000    -0.067000000
C     2.920000000    -0.337000000    -0.163000000
C     4.392000000    -0.757000000    -0.424000000
O     5.288000000     0.114000000    -0.548000000
O     4.653000000    -1.939000000    -0.498000000
