14
-83.07521
C     2.609000000    -1.483000000     0.012000000
H     2.925000000    -2.508000000     0.191000000
C     1.394000000    -1.102000000     0.603000000
H     0.817000000    -1.742000000     1.265000000
C     0.994000000     0.220000000     0.418000000
H     0.044000000     0.494000000     0.963000000
C     1.716000000     1.065000000    -0.377000000
H     1.241000000     2.037000000    -0.490000000
C     2.775000000     0.621000000    -1.145000000
H     3.281000000     1.214000000    -1.902000000
C     3.303000000    -0.681000000    -0.935000000
C     4.605000000    -1.117000000    -1.604000000
O     5.227000000    -0.268000000    -2.246000000
O     5.217000000    -2.062000000    -1.156000000
