14
-87.07245
C     0.214000000    -0.119000000    -2.356000000
H    -0.413000000    -0.393000000    -3.201000000
C    -0.272000000    -0.256000000    -1.074000000
H    -1.269000000    -0.643000000    -0.883000000
C     0.487000000     0.111000000     0.052000000
H    -0.037000000    -0.138000000     0.980000000
C     1.737000000     0.612000000    -0.113000000
H     2.364000000     0.855000000     0.740000000
C     2.207000000     0.874000000    -1.402000000
H     3.210000000     1.246000000    -1.591000000
C     1.435000000     0.493000000    -2.562000000
C     2.134000000     0.533000000    -3.904000000
O     3.227000000     1.048000000    -4.008000000
O     1.444000000     0.350000000    -4.923000000
