14
-83.16477
C     2.476000000    -2.480000000     0.602000000
H     2.861000000    -3.397000000     1.039000000
C     1.093000000    -2.251000000     0.650000000
H     0.410000000    -2.970000000     1.094000000
C     0.554000000    -1.139000000     0.146000000
H    -0.486000000    -0.984000000     0.284000000
C     1.305000000    -0.230000000    -0.469000000
H     0.864000000     0.660000000    -0.912000000
C     2.623000000    -0.374000000    -0.548000000
H     3.295000000     0.288000000    -1.089000000
C     3.300000000    -1.475000000     0.045000000
C     4.812000000    -1.643000000     0.028000000
O     5.475000000    -0.761000000    -0.498000000
O     5.375000000    -2.681000000     0.435000000
