14
-83.14917
C     1.748000000    -0.683000000    -1.799000000
H     1.861000000    -1.440000000    -2.572000000
C     0.499000000    -0.589000000    -1.132000000
H    -0.377000000    -1.146000000    -1.454000000
C     0.310000000     0.435000000    -0.100000000
H    -0.614000000     0.483000000     0.550000000
C     1.312000000     1.434000000     0.033000000
H     1.082000000     2.274000000     0.684000000
C     2.578000000     1.254000000    -0.636000000
H     3.323000000     2.037000000    -0.520000000
C     2.810000000     0.166000000    -1.500000000
C     4.194000000     0.011000000    -2.243000000
O     5.012000000     0.914000000    -2.317000000
O     4.420000000    -1.051000000    -2.718000000
