14
-69.85755
C     1.952000000    -1.820000000     0.245000000
H     2.195000000    -2.831000000     0.560000000
C     0.668000000    -1.315000000     0.504000000
H    -0.032000000    -2.037000000     0.916000000
C     0.314000000    -0.030000000     0.050000000
H    -0.700000000     0.322000000     0.309000000
C     1.284000000     0.666000000    -0.722000000
H     0.924000000     1.664000000    -0.957000000
C     2.549000000     0.105000000    -1.037000000
H     3.255000000     0.641000000    -1.666000000
C     2.923000000    -1.163000000    -0.543000000
C     4.246000000    -1.745000000    -0.866000000
O     5.096000000    -1.066000000    -1.450000000
O     4.676000000    -2.539000000    -0.123000000
