14
-91.43079
C     1.504000000    -0.212000000    -1.524000000
H     1.571000000    -0.665000000    -2.510000000
C     0.307000000    -0.160000000    -0.754000000
H    -0.541000000    -0.755000000    -1.082000000
C     0.234000000     0.587000000     0.487000000
H    -0.717000000     0.610000000     1.049000000
C     1.351000000     1.320000000     0.882000000
H     1.265000000     1.991000000     1.733000000
C     2.578000000     1.190000000     0.153000000
H     3.398000000     1.822000000     0.487000000
C     2.715000000     0.354000000    -0.928000000
C     4.033000000     0.278000000    -1.713000000
O     4.943000000     1.033000000    -1.409000000
O     4.017000000    -0.527000000    -2.658000000
