14
-84.66879
C     2.660000000     0.017000000    -1.895000000
H     3.212000000    -0.232000000    -2.798000000
C     1.342000000    -0.305000000    -1.878000000
H     0.944000000    -0.771000000    -2.776000000
C     0.513000000    -0.103000000    -0.741000000
H    -0.494000000    -0.522000000    -0.784000000
C     1.054000000     0.467000000     0.365000000
H     0.421000000     0.667000000     1.226000000
C     2.389000000     0.805000000     0.334000000
H     2.837000000     1.227000000     1.229000000
C     3.256000000     0.549000000    -0.785000000
C     4.663000000     1.065000000    -0.829000000
O     5.206000000     1.402000000     0.185000000
O     5.322000000     0.962000000    -1.858000000
