14
-77.63374
C    -0.093000000     0.063000000    -2.641000000
H    -0.490000000    -0.012000000    -3.650000000
C    -0.865000000     0.119000000    -1.511000000
H    -1.936000000    -0.062000000    -1.475000000
C    -0.293000000     0.017000000    -0.250000000
H    -0.922000000    -0.052000000     0.692000000
C     1.096000000     0.024000000    -0.165000000
H     1.580000000    -0.077000000     0.803000000
C     1.860000000     0.129000000    -1.351000000
H     2.930000000     0.307000000    -1.280000000
C     1.223000000     0.165000000    -2.567000000
C     2.019000000     0.154000000    -3.820000000
O     3.261000000     0.219000000    -3.707000000
O     1.465000000     0.476000000    -4.822000000
