14
-87.03478
C     3.287000000     0.415000000    -2.205000000
H     3.730000000     0.291000000    -3.190000000
C     1.960000000     0.089000000    -2.144000000
H     1.366000000    -0.303000000    -2.966000000
C     1.262000000     0.264000000    -0.962000000
H     0.236000000     0.077000000    -0.935000000
C     1.855000000     0.842000000     0.132000000
H     1.342000000     1.088000000     1.058000000
C     3.170000000     1.245000000     0.032000000
H     3.708000000     1.775000000     0.814000000
C     3.928000000     0.949000000    -1.152000000
C     5.402000000     1.470000000    -1.226000000
O     5.830000000     2.067000000    -0.254000000
O     6.174000000     0.999000000    -2.098000000
