14
-91.02959
C     0.084000000    -0.054000000    -2.353000000
H    -0.430000000    -0.347000000    -3.265000000
C    -0.522000000    -0.251000000    -1.133000000
H    -1.556000000    -0.585000000    -1.109000000
C     0.183000000    -0.106000000     0.046000000
H    -0.247000000    -0.427000000     0.985000000
C     1.488000000     0.368000000    -0.029000000
H     2.039000000     0.563000000     0.888000000
C     2.106000000     0.519000000    -1.245000000
H     3.150000000     0.795000000    -1.363000000
C     1.442000000     0.331000000    -2.474000000
C     2.195000000     0.186000000    -3.773000000
O     3.311000000     0.716000000    -3.850000000
O     1.732000000    -0.395000000    -4.755000000
