14
-87.92178
C     0.910000000    -0.033000000    -1.973000000
H     0.548000000    -0.061000000    -2.997000000
C    -0.040000000    -0.001000000    -0.954000000
H    -1.097000000    -0.026000000    -1.207000000
C     0.303000000    -0.036000000     0.371000000
H    -0.491000000     0.021000000     1.065000000
C     1.628000000     0.064000000     0.674000000
H     1.928000000     0.210000000     1.709000000
C     2.634000000     0.071000000    -0.353000000
H     3.682000000     0.078000000    -0.063000000
C     2.264000000    -0.009000000    -1.687000000
C     3.310000000    -0.063000000    -2.767000000
O     4.491000000    -0.264000000    -2.465000000
O     2.990000000    -0.255000000    -3.963000000
