14
-88.31232
C     1.564000000    -0.878000000    -3.205000000
H     1.816000000    -1.458000000    -4.090000000
C     0.418000000    -1.148000000    -2.419000000
H    -0.303000000    -1.830000000    -2.863000000
C     0.186000000    -0.432000000    -1.262000000
H    -0.753000000    -0.539000000    -0.653000000
C     1.066000000     0.539000000    -0.905000000
H     0.835000000     1.091000000     0.002000000
C     2.218000000     0.825000000    -1.628000000
H     2.899000000     1.607000000    -1.301000000
C     2.545000000     0.035000000    -2.741000000
C     3.836000000     0.276000000    -3.503000000
O     4.795000000     0.831000000    -2.986000000
O     4.033000000    -0.306000000    -4.575000000
