14
-81.00829
C     1.668000000    -0.008000000    -2.872000000
H     1.670000000    -0.008000000    -3.959000000
C     0.388000000    -0.059000000    -2.239000000
H    -0.471000000    -0.369000000    -2.828000000
C     0.243000000     0.423000000    -0.946000000
H    -0.714000000     0.481000000    -0.489000000
C     1.420000000     0.823000000    -0.223000000
H     1.362000000     1.158000000     0.810000000
C     2.684000000     0.741000000    -0.810000000
H     3.539000000     1.081000000    -0.231000000
C     2.794000000     0.390000000    -2.145000000
C     4.178000000     0.602000000    -2.824000000
O     5.065000000     1.230000000    -2.321000000
O     4.350000000     0.076000000    -3.855000000
