14
-84.68076
C     0.953000000    -0.682000000    -2.449000000
H     0.826000000    -0.866000000    -3.512000000
C    -0.142000000    -0.241000000    -1.729000000
H    -1.088000000    -0.172000000    -2.260000000
C    -0.122000000     0.004000000    -0.358000000
H    -1.013000000     0.313000000     0.155000000
C     1.068000000    -0.171000000     0.298000000
H     1.118000000     0.057000000     1.360000000
C     2.260000000    -0.479000000    -0.376000000
H     3.174000000    -0.658000000     0.184000000
C     2.204000000    -0.810000000    -1.756000000
C     3.435000000    -1.158000000    -2.503000000
O     4.432000000    -0.818000000    -1.966000000
O     3.432000000    -1.882000000    -3.476000000
