14
-87.38181
C     0.996000000    -0.562000000    -1.798000000
H     0.794000000    -0.471000000    -2.862000000
C    -0.093000000    -0.341000000    -0.872000000
H    -1.049000000     0.013000000    -1.249000000
C     0.173000000    -0.514000000     0.495000000
H    -0.645000000    -0.246000000     1.307000000
C     1.462000000    -0.644000000     0.945000000
H     1.671000000    -0.674000000     2.011000000
C     2.567000000    -0.761000000     0.068000000
H     3.582000000    -0.854000000     0.445000000
C     2.292000000    -0.753000000    -1.318000000
C     3.342000000    -1.209000000    -2.318000000
O     4.519000000    -1.338000000    -1.961000000
O     3.067000000    -1.352000000    -3.521000000
