14
-91.42723
C     0.821000000    -0.834000000    -1.778000000
H     0.964000000    -1.160000000    -2.805000000
C    -0.428000000    -0.564000000    -1.295000000
H    -1.332000000    -0.764000000    -1.865000000
C    -0.645000000    -0.079000000    -0.013000000
H    -1.707000000     0.025000000     0.300000000
C     0.475000000     0.341000000     0.717000000
H     0.385000000     0.696000000     1.741000000
C     1.749000000     0.052000000     0.231000000
H     2.608000000     0.271000000     0.859000000
C     1.944000000    -0.522000000    -1.034000000
C     3.353000000    -0.775000000    -1.580000000
O     4.377000000    -0.682000000    -0.894000000
O     3.493000000    -1.066000000    -2.790000000
