14
-89.45639
C     1.099000000    -0.017000000    -2.091000000
H     0.735000000     0.138000000    -3.104000000
C     0.141000000    -0.120000000    -1.051000000
H    -0.885000000    -0.089000000    -1.410000000
C     0.572000000    -0.169000000     0.300000000
H    -0.183000000    -0.172000000     1.095000000
C     1.936000000    -0.064000000     0.607000000
H     2.293000000    -0.022000000     1.632000000
C     2.925000000    -0.045000000    -0.443000000
H     4.002000000     0.022000000    -0.306000000
C     2.468000000     0.009000000    -1.789000000
C     3.556000000    -0.112000000    -2.921000000
O     4.703000000     0.247000000    -2.760000000
O     3.192000000    -0.562000000    -3.993000000
