14
-81.46602
C     1.090000000    -0.588000000    -2.470000000
H     0.700000000    -0.510000000    -3.482000000
C     0.177000000    -0.379000000    -1.402000000
H    -0.889000000    -0.462000000    -1.598000000
C     0.651000000    -0.152000000    -0.083000000
H    -0.035000000     0.056000000     0.710000000
C     1.997000000    -0.228000000     0.201000000
H     2.315000000    -0.044000000     1.224000000
C     2.916000000    -0.329000000    -0.892000000
H     3.995000000    -0.268000000    -0.783000000
C     2.477000000    -0.609000000    -2.160000000
C     3.408000000    -0.700000000    -3.316000000
O     4.603000000    -0.880000000    -3.079000000
O     3.085000000    -0.969000000    -4.482000000
