14
-80.17053
C     1.058000000    -0.166000000    -1.896000000
H     0.883000000    -0.107000000    -2.967000000
C     0.037000000    -0.084000000    -1.054000000
H    -0.959000000     0.228000000    -1.357000000
C     0.224000000    -0.183000000     0.387000000
H    -0.465000000     0.108000000     1.181000000
C     1.582000000    -0.412000000     0.831000000
H     1.813000000    -0.409000000     1.894000000
C     2.601000000    -0.570000000    -0.097000000
H     3.635000000    -0.778000000     0.167000000
C     2.333000000    -0.472000000    -1.486000000
C     3.383000000    -0.686000000    -2.589000000
O     4.362000000    -1.333000000    -2.299000000
O     3.215000000    -0.377000000    -3.740000000
