14
-86.88590
C     0.489000000     0.287000000    -1.862000000
H    -0.067000000     0.331000000    -2.794000000
C    -0.249000000     0.413000000    -0.675000000
H    -1.334000000     0.467000000    -0.717000000
C     0.362000000     0.394000000     0.536000000
H    -0.157000000     0.496000000     1.454000000
C     1.722000000     0.151000000     0.619000000
H     2.206000000     0.187000000     1.592000000
C     2.470000000     0.175000000    -0.537000000
H     3.533000000     0.004000000    -0.383000000
C     1.892000000     0.238000000    -1.802000000
C     2.816000000     0.001000000    -3.030000000
O     4.013000000     0.203000000    -3.036000000
O     2.320000000    -0.531000000    -4.032000000
