14
-84.65176
C     0.963000000    -2.300000000    -2.358000000
H     0.856000000    -2.658000000    -3.379000000
C     0.461000000    -1.067000000    -1.951000000
H    -0.044000000    -0.435000000    -2.677000000
C     0.700000000    -0.640000000    -0.660000000
H     0.300000000     0.228000000    -0.323000000
C     1.372000000    -1.442000000     0.277000000
H     1.670000000    -1.120000000     1.272000000
C     1.891000000    -2.700000000    -0.123000000
H     2.343000000    -3.341000000     0.630000000
C     1.694000000    -3.129000000    -1.385000000
C     2.291000000    -4.429000000    -1.789000000
O     3.030000000    -5.040000000    -1.045000000
O     2.265000000    -4.748000000    -2.983000000
