14
-90.29484
C    -0.191000000    -0.294000000    -1.778000000
H    -0.862000000    -0.494000000    -2.609000000
C    -0.696000000    -0.229000000    -0.496000000
H    -1.744000000    -0.436000000    -0.294000000
C     0.216000000    -0.008000000     0.590000000
H    -0.101000000     0.008000000     1.716000000
C     1.533000000     0.417000000     0.254000000
H     2.224000000     0.736000000     1.031000000
C     1.938000000     0.498000000    -1.058000000
H     2.880000000     0.989000000    -1.290000000
C     1.124000000     0.128000000    -2.104000000
C     1.519000000     0.328000000    -3.542000000
O     2.546000000     0.982000000    -3.826000000
O     0.831000000    -0.244000000    -4.391000000
