14
-82.88636
C     0.614000000    -0.767000000    -2.753000000
H     0.773000000    -0.640000000    -3.821000000
C    -0.396000000    -0.086000000    -2.056000000
H    -1.021000000     0.563000000    -2.664000000
C    -0.544000000    -0.102000000    -0.646000000
H    -1.355000000     0.556000000    -0.110000000
C     0.341000000    -0.939000000     0.059000000
H     0.264000000    -0.923000000     1.143000000
C     1.236000000    -1.809000000    -0.682000000
H     1.929000000    -2.434000000    -0.125000000
C     1.456000000    -1.674000000    -2.088000000
C     2.378000000    -2.588000000    -2.780000000
O     3.014000000    -3.408000000    -2.127000000
O     2.581000000    -2.491000000    -3.961000000
