14
-93.16697
C     0.405000000    -1.666000000    -1.847000000
H     0.056000000    -2.216000000    -2.717000000
C    -0.415000000    -0.611000000    -1.502000000
H    -1.248000000    -0.318000000    -2.137000000
C    -0.115000000     0.173000000    -0.303000000
H    -0.711000000     1.014000000    -0.086000000
C     0.954000000    -0.199000000     0.472000000
H     1.174000000     0.394000000     1.357000000
C     1.735000000    -1.279000000     0.099000000
H     2.550000000    -1.563000000     0.761000000
C     1.462000000    -2.051000000    -1.063000000
C     2.245000000    -3.317000000    -1.452000000
O     2.993000000    -3.832000000    -0.622000000
O     2.063000000    -3.768000000    -2.592000000
