14
-78.43009
C     0.281000000    -1.526000000    -1.899000000
H    -0.109000000    -1.773000000    -2.883000000
C    -0.157000000    -0.408000000    -1.150000000
H    -0.979000000     0.181000000    -1.547000000
C     0.446000000    -0.062000000     0.062000000
H     0.115000000     0.948000000     0.408000000
C     1.432000000    -0.792000000     0.611000000
H     1.853000000    -0.436000000     1.548000000
C     1.805000000    -2.027000000     0.009000000
H     2.538000000    -2.690000000     0.462000000
C     1.275000000    -2.280000000    -1.298000000
C     1.736000000    -3.512000000    -1.955000000
O     2.561000000    -4.231000000    -1.472000000
O     1.545000000    -3.579000000    -3.155000000
