14
-87.84378
C     0.402000000    -1.536000000    -1.428000000
H     0.222000000    -1.764000000    -2.475000000
C    -0.296000000    -0.519000000    -0.811000000
H    -0.990000000     0.049000000    -1.426000000
C    -0.048000000    -0.143000000     0.533000000
H    -0.671000000     0.664000000     0.995000000
C     0.794000000    -0.932000000     1.307000000
H     0.913000000    -0.623000000     2.342000000
C     1.343000000    -2.043000000     0.723000000
H     2.042000000    -2.692000000     1.245000000
C     1.100000000    -2.444000000    -0.595000000
C     1.716000000    -3.702000000    -1.196000000
O     2.518000000    -4.312000000    -0.545000000
O     1.428000000    -4.058000000    -2.329000000
