14
-84.83822
C     0.612000000    -0.081000000    -2.973000000
H    -0.008000000    -0.414000000    -3.801000000
C     0.163000000    -0.257000000    -1.644000000
H    -0.804000000    -0.751000000    -1.609000000
C     0.840000000     0.244000000    -0.547000000
H     0.469000000     0.230000000     0.457000000
C     2.068000000     0.854000000    -0.796000000
H     2.568000000     1.280000000     0.071000000
C     2.510000000     1.069000000    -2.093000000
H     3.437000000     1.605000000    -2.282000000
C     1.801000000     0.543000000    -3.202000000
C     2.296000000     0.770000000    -4.608000000
O     3.083000000     1.677000000    -4.795000000
O     1.951000000     0.180000000    -5.604000000
