14
-88.03761
C     0.896000000    -2.027000000    -0.991000000
H     0.935000000    -2.837000000    -1.715000000
C    -0.056000000    -0.971000000    -1.103000000
H    -0.613000000    -0.932000000    -2.036000000
C    -0.145000000     0.088000000    -0.153000000
H    -0.836000000     0.888000000    -0.310000000
C     0.652000000    -0.031000000     1.014000000
H     0.538000000     0.661000000     1.844000000
C     1.595000000    -1.060000000     1.136000000
H     2.259000000    -0.996000000     1.994000000
C     1.675000000    -2.101000000     0.216000000
C     2.549000000    -3.292000000     0.349000000
O     3.530000000    -3.183000000     1.082000000
O     2.356000000    -4.355000000    -0.209000000
