14
-80.41622
C     0.749000000    -2.586000000    -1.355000000
H     0.535000000    -2.858000000    -2.385000000
C     0.447000000    -1.301000000    -0.892000000
H    -0.151000000    -0.677000000    -1.550000000
C     0.792000000    -0.872000000     0.350000000
H     0.463000000     0.058000000     0.727000000
C     1.490000000    -1.744000000     1.183000000
H     1.592000000    -1.284000000     2.162000000
C     1.892000000    -2.961000000     0.772000000
H     2.434000000    -3.636000000     1.430000000
C     1.566000000    -3.410000000    -0.491000000
C     2.028000000    -4.739000000    -1.059000000
O     2.749000000    -5.569000000    -0.485000000
O     2.060000000    -4.812000000    -2.326000000
