14
-90.06269
C     1.053000000    -1.809000000    -1.901000000
H     1.207000000    -2.232000000    -2.890000000
C     0.281000000    -0.683000000    -1.762000000
H    -0.207000000    -0.106000000    -2.544000000
C    -0.040000000    -0.133000000    -0.489000000
H    -0.744000000     0.718000000    -0.442000000
C     0.626000000    -0.705000000     0.577000000
H     0.386000000    -0.335000000     1.571000000
C     1.411000000    -1.823000000     0.450000000
H     1.846000000    -2.317000000     1.315000000
C     1.646000000    -2.437000000    -0.801000000
C     2.514000000    -3.599000000    -1.040000000
O     2.911000000    -4.327000000    -0.126000000
O     2.911000000    -3.705000000    -2.204000000
