14
-88.06611
C     0.857000000    -1.309000000    -1.224000000
H     0.792000000    -1.594000000    -2.271000000
C    -0.120000000    -0.481000000    -0.717000000
H    -0.995000000    -0.185000000    -1.290000000
C    -0.105000000    -0.046000000     0.606000000
H    -0.858000000     0.632000000     0.950000000
C     0.975000000    -0.301000000     1.393000000
H     0.954000000     0.118000000     2.396000000
C     1.974000000    -1.093000000     0.911000000
H     2.896000000    -1.212000000     1.474000000
C     1.978000000    -1.494000000    -0.442000000
C     3.215000000    -2.162000000    -1.077000000
O     4.111000000    -2.555000000    -0.329000000
O     3.275000000    -2.370000000    -2.269000000
