14
-82.65745
C     1.735000000    -1.114000000    -0.605000000
H     2.095000000    -1.471000000    -1.566000000
C     0.477000000    -0.596000000    -0.512000000
H    -0.250000000    -0.646000000    -1.319000000
C     0.098000000     0.146000000     0.577000000
H    -0.921000000     0.400000000     0.685000000
C     0.869000000     0.291000000     1.664000000
H     0.560000000     0.734000000     2.607000000
C     2.185000000    -0.170000000     1.628000000
H     2.867000000    -0.088000000     2.470000000
C     2.635000000    -0.848000000     0.452000000
C     4.023000000    -1.402000000     0.439000000
O     4.655000000    -1.437000000     1.464000000
O     4.501000000    -1.998000000    -0.561000000
