14
-84.85239
C     2.026000000    -1.784000000    -1.698000000
H     2.698000000    -2.266000000    -2.403000000
C     0.880000000    -1.125000000    -2.142000000
H     0.651000000    -1.007000000    -3.198000000
C     0.039000000    -0.495000000    -1.237000000
H    -0.860000000    -0.127000000    -1.616000000
C     0.277000000    -0.588000000     0.122000000
H    -0.388000000    -0.107000000     0.835000000
C     1.296000000    -1.410000000     0.564000000
H     1.475000000    -1.470000000     1.635000000
C     2.186000000    -2.096000000    -0.361000000
C     3.330000000    -2.918000000     0.115000000
O     3.488000000    -3.281000000     1.264000000
O     4.286000000    -3.047000000    -0.654000000
