14
-90.20617
C     0.629000000    -0.124000000    -2.626000000
H     0.363000000    -0.734000000    -3.486000000
C     0.183000000    -0.398000000    -1.324000000
H    -0.533000000    -1.187000000    -1.110000000
C     0.578000000     0.408000000    -0.254000000
H     0.126000000     0.244000000     0.687000000
C     1.457000000     1.442000000    -0.530000000
H     1.741000000     2.170000000     0.226000000
C     1.909000000     1.686000000    -1.817000000
H     2.764000000     2.343000000    -1.954000000
C     1.434000000     0.973000000    -2.870000000
C     1.790000000     1.410000000    -4.247000000
O     2.896000000     1.843000000    -4.563000000
O     0.904000000     1.179000000    -5.108000000
