14
-89.20739
C     1.482000000    -0.807000000    -0.464000000
H     1.856000000    -1.127000000    -1.433000000
C     0.175000000    -0.382000000    -0.306000000
H    -0.563000000    -0.465000000    -1.100000000
C    -0.220000000     0.206000000     0.890000000
H    -1.262000000     0.529000000     1.045000000
C     0.749000000     0.437000000     1.867000000
H     0.460000000     1.060000000     2.709000000
C     1.991000000    -0.078000000     1.750000000
H     2.697000000     0.145000000     2.546000000
C     2.392000000    -0.653000000     0.546000000
C     3.873000000    -0.963000000     0.378000000
O     4.606000000    -0.866000000     1.391000000
O     4.319000000    -1.519000000    -0.617000000
