14
-82.55906
C     1.512000000    -1.734000000    -0.825000000
H     1.685000000    -2.464000000    -1.613000000
C     0.396000000    -0.890000000    -0.708000000
H    -0.424000000    -1.066000000    -1.399000000
C     0.249000000     0.092000000     0.286000000
H    -0.697000000     0.674000000     0.390000000
C     1.268000000     0.313000000     1.175000000
H     1.147000000     1.064000000     1.952000000
C     2.435000000    -0.449000000     1.029000000
H     3.259000000    -0.130000000     1.662000000
C     2.564000000    -1.491000000     0.040000000
C     3.920000000    -2.112000000    -0.187000000
O     4.904000000    -1.731000000     0.417000000
O     4.118000000    -3.057000000    -0.916000000
