14
-83.32350
C     1.274000000    -1.136000000    -1.079000000
H     1.645000000    -2.048000000    -1.541000000
C    -0.030000000    -0.756000000    -1.216000000
H    -0.663000000    -1.280000000    -1.927000000
C    -0.507000000     0.339000000    -0.484000000
H    -1.590000000     0.708000000    -0.594000000
C     0.239000000     0.815000000     0.553000000
H    -0.289000000     1.441000000     1.268000000
C     1.568000000     0.565000000     0.663000000
H     2.142000000     0.937000000     1.508000000
C     2.133000000    -0.406000000    -0.195000000
C     3.618000000    -0.665000000    -0.062000000
O     4.273000000    -0.182000000     0.835000000
O     4.133000000    -1.523000000    -0.765000000
