14
-84.21230
C     1.730000000    -1.184000000    -1.594000000
H     2.316000000    -1.694000000    -2.355000000
C     0.444000000    -0.727000000    -1.812000000
H    -0.066000000    -0.930000000    -2.750000000
C    -0.263000000    -0.122000000    -0.780000000
H    -1.342000000     0.083000000    -0.959000000
C     0.299000000     0.042000000     0.491000000
H    -0.293000000     0.434000000     1.314000000
C     1.564000000    -0.383000000     0.702000000
H     1.946000000    -0.380000000     1.720000000
C     2.264000000    -1.062000000    -0.274000000
C     3.493000000    -1.776000000     0.092000000
O     3.888000000    -2.041000000     1.223000000
O     4.209000000    -2.173000000    -0.817000000
