14
-81.42660
C     1.777000000    -0.855000000    -0.439000000
H     2.312000000    -1.380000000    -1.226000000
C     0.511000000    -0.351000000    -0.637000000
H     0.059000000    -0.601000000    -1.593000000
C    -0.133000000     0.396000000     0.354000000
H    -1.181000000     0.700000000     0.296000000
C     0.559000000     0.671000000     1.569000000
H     0.084000000     1.253000000     2.355000000
C     1.880000000     0.183000000     1.798000000
H     2.531000000     0.453000000     2.626000000
C     2.489000000    -0.542000000     0.760000000
C     3.926000000    -0.956000000     0.833000000
O     4.356000000    -1.205000000     1.942000000
O     4.518000000    -1.433000000    -0.098000000
