14
-78.52365
C     2.644000000    -1.210000000    -0.573000000
H     3.253000000    -1.990000000    -1.023000000
C     1.265000000    -1.503000000    -0.520000000
H     0.847000000    -2.482000000    -0.741000000
C     0.300000000    -0.548000000    -0.157000000
H    -0.755000000    -0.837000000    -0.241000000
C     0.745000000     0.754000000     0.065000000
H     0.002000000     1.510000000     0.303000000
C     2.127000000     0.969000000     0.078000000
H     2.522000000     1.939000000     0.372000000
C     3.106000000     0.048000000    -0.170000000
C     4.513000000     0.483000000    -0.198000000
O     4.876000000     1.473000000     0.416000000
O     5.352000000    -0.327000000    -0.478000000
