14
-86.85904
C     0.622000000    -0.497000000    -1.468000000
H     0.592000000    -0.914000000    -2.472000000
C    -0.534000000    -0.035000000    -0.913000000
H    -1.455000000    -0.330000000    -1.408000000
C    -0.521000000     0.456000000     0.380000000
H    -1.581000000     0.736000000     0.710000000
C     0.653000000     0.553000000     1.152000000
H     0.807000000     0.974000000     2.142000000
C     1.790000000     0.102000000     0.511000000
H     2.737000000     0.074000000     1.044000000
C     1.801000000    -0.473000000    -0.732000000
C     3.119000000    -0.983000000    -1.250000000
O     4.171000000    -0.664000000    -0.681000000
O     3.150000000    -1.604000000    -2.335000000
