14
-82.87573
C     2.623000000    -0.945000000    -0.936000000
H     3.011000000    -1.444000000    -1.821000000
C     1.266000000    -1.017000000    -0.672000000
H     0.497000000    -1.572000000    -1.204000000
C     0.778000000    -0.399000000     0.509000000
H    -0.339000000    -0.415000000     0.720000000
C     1.637000000     0.488000000     1.151000000
H     1.263000000     1.147000000     1.930000000
C     3.019000000     0.560000000     0.851000000
H     3.606000000     1.327000000     1.348000000
C     3.510000000    -0.121000000    -0.256000000
C     4.956000000    -0.001000000    -0.745000000
O     5.782000000     0.682000000    -0.166000000
O     5.394000000    -0.876000000    -1.493000000
