14
-85.24163
C     1.822000000    -0.082000000    -1.713000000
H     2.514000000    -0.425000000    -2.478000000
C     0.522000000    -0.651000000    -1.731000000
H     0.287000000    -1.275000000    -2.590000000
C    -0.321000000    -0.343000000    -0.700000000
H    -1.334000000    -0.706000000    -0.668000000
C     0.074000000     0.506000000     0.343000000
H    -0.648000000     0.818000000     1.094000000
C     1.377000000     0.998000000     0.378000000
H     1.692000000     1.594000000     1.231000000
C     2.310000000     0.723000000    -0.679000000
C     3.757000000     1.184000000    -0.660000000
O     4.064000000     1.926000000     0.224000000
O     4.607000000     0.686000000    -1.336000000
