14
-84.78625
C     2.127000000    -0.861000000    -0.988000000
H     2.619000000    -1.381000000    -1.806000000
C     0.792000000    -0.962000000    -0.711000000
H     0.266000000    -1.706000000    -1.305000000
C     0.225000000    -0.322000000     0.346000000
H    -0.807000000    -0.443000000     0.595000000
C     0.942000000     0.641000000     1.041000000
H     0.443000000     1.204000000     1.825000000
C     2.280000000     0.866000000     0.785000000
H     2.897000000     1.570000000     1.338000000
C     2.887000000     0.148000000    -0.315000000
C     4.384000000     0.227000000    -0.653000000
O     5.094000000     1.051000000    -0.103000000
O     4.865000000    -0.324000000    -1.654000000
