14
-87.35817
C     2.152000000    -1.010000000    -0.778000000
H     2.873000000    -1.680000000    -1.241000000
C     0.934000000    -0.873000000    -1.361000000
H     0.604000000    -1.258000000    -2.322000000
C    -0.110000000    -0.277000000    -0.658000000
H    -1.107000000    -0.281000000    -1.015000000
C     0.196000000     0.262000000     0.596000000
H    -0.644000000     0.630000000     1.180000000
C     1.464000000     0.220000000     1.136000000
H     1.631000000     0.468000000     2.181000000
C     2.490000000    -0.394000000     0.423000000
C     3.882000000    -0.579000000     0.989000000
O     4.104000000    -0.228000000     2.122000000
O     4.687000000    -1.255000000     0.371000000
