14
-86.45904
C     1.645000000    -0.583000000    -1.021000000
H     2.518000000    -0.855000000    -1.610000000
C     0.399000000    -0.994000000    -1.404000000
H     0.209000000    -1.597000000    -2.288000000
C    -0.671000000    -0.644000000    -0.644000000
H    -1.640000000    -1.035000000    -0.962000000
C    -0.481000000     0.062000000     0.553000000
H    -1.374000000     0.307000000     1.121000000
C     0.791000000     0.466000000     1.000000000
H     0.867000000     1.005000000     1.940000000
C     1.867000000     0.102000000     0.150000000
C     3.248000000     0.556000000     0.544000000
O     3.421000000     1.309000000     1.497000000
O     4.185000000     0.020000000     0.039000000
