14
-80.82923
C     2.423000000    -1.057000000    -0.235000000
H     3.079000000    -1.684000000    -0.834000000
C     1.051000000    -0.986000000    -0.528000000
H     0.622000000    -1.521000000    -1.371000000
C     0.177000000    -0.322000000     0.281000000
H    -0.963000000    -0.480000000     0.222000000
C     0.649000000     0.439000000     1.302000000
H    -0.082000000     1.052000000     1.824000000
C     2.052000000     0.397000000     1.564000000
H     2.379000000     0.857000000     2.493000000
C     2.944000000    -0.359000000     0.843000000
C     4.296000000    -0.500000000     1.284000000
O     4.756000000     0.345000000     2.058000000
O     5.009000000    -1.395000000     0.901000000
