14
-89.60577
C     1.901000000    -0.089000000    -0.666000000
H     2.757000000    -0.518000000    -1.181000000
C     0.620000000    -0.616000000    -0.797000000
H     0.465000000    -1.378000000    -1.556000000
C    -0.440000000    -0.170000000     0.051000000
H    -1.479000000    -0.313000000    -0.187000000
C    -0.196000000     0.754000000     0.997000000
H    -1.079000000     1.126000000     1.509000000
C     1.123000000     1.173000000     1.297000000
H     1.311000000     1.899000000     2.083000000
C     2.187000000     0.767000000     0.455000000
C     3.609000000     1.157000000     0.768000000
O     3.819000000     2.008000000     1.639000000
O     4.543000000     0.622000000     0.124000000
