14
-90.15805
C     2.194000000    -1.329000000     0.200000000
H     2.934000000    -2.055000000    -0.126000000
C     1.030000000    -1.115000000    -0.509000000
H     0.800000000    -1.692000000    -1.401000000
C     0.067000000    -0.194000000    -0.086000000
H    -0.883000000    -0.143000000    -0.497000000
C     0.343000000     0.518000000     1.079000000
H    -0.466000000     1.044000000     1.578000000
C     1.589000000     0.374000000     1.692000000
H     1.818000000     0.991000000     2.557000000
C     2.541000000    -0.560000000     1.297000000
C     3.912000000    -0.761000000     2.025000000
O     4.261000000     0.048000000     2.890000000
O     4.705000000    -1.618000000     1.666000000
