14
-86.44537
C     2.789000000    -1.628000000    -0.231000000
H     3.441000000    -2.349000000    -0.718000000
C     1.644000000    -1.223000000    -0.942000000
H     1.460000000    -1.627000000    -1.934000000
C     0.730000000    -0.318000000    -0.339000000
H    -0.094000000     0.059000000    -0.855000000
C     0.990000000     0.175000000     0.968000000
H     0.279000000     0.870000000     1.408000000
C     2.105000000    -0.279000000     1.683000000
H     2.286000000     0.191000000     2.646000000
C     3.059000000    -1.164000000     1.132000000
C     4.327000000    -1.501000000     1.766000000
O     4.693000000    -0.810000000     2.653000000
O     4.934000000    -2.477000000     1.326000000
