14
-84.92469
C     2.033000000    -1.163000000     0.197000000
H     2.423000000    -2.012000000    -0.358000000
C     0.720000000    -0.835000000    -0.171000000
H     0.188000000    -1.391000000    -0.938000000
C     0.100000000     0.244000000     0.397000000
H    -0.938000000     0.441000000     0.107000000
C     0.737000000     1.029000000     1.298000000
H     0.190000000     1.879000000     1.696000000
C     2.060000000     0.730000000     1.655000000
H     2.583000000     1.374000000     2.357000000
C     2.726000000    -0.357000000     1.058000000
C     4.116000000    -0.669000000     1.502000000
O     4.668000000     0.001000000     2.382000000
O     4.679000000    -1.501000000     0.905000000
