14
-84.23867
C     1.343000000    -1.619000000     0.934000000
H     1.754000000    -2.583000000     0.647000000
C     0.258000000    -1.021000000     0.264000000
H    -0.164000000    -1.445000000    -0.644000000
C    -0.121000000     0.193000000     0.700000000
H    -0.923000000     0.753000000     0.212000000
C     0.459000000     0.834000000     1.715000000
H     0.101000000     1.844000000     1.898000000
C     1.508000000     0.236000000     2.433000000
H     1.987000000     0.622000000     3.329000000
C     1.983000000    -0.987000000     1.985000000
C     3.289000000    -1.548000000     2.617000000
O     3.890000000    -0.812000000     3.365000000
O     3.799000000    -2.622000000     2.311000000
