14
-78.67096
C     2.808000000    -1.528000000     0.318000000
H     3.499000000    -2.368000000     0.320000000
C     1.744000000    -1.418000000    -0.585000000
H     1.514000000    -2.142000000    -1.363000000
C     0.881000000    -0.352000000    -0.492000000
H    -0.027000000    -0.393000000    -1.114000000
C     1.053000000     0.634000000     0.436000000
H     0.344000000     1.458000000     0.475000000
C     2.161000000     0.522000000     1.314000000
H     2.381000000     1.387000000     1.934000000
C     3.018000000    -0.612000000     1.287000000
C     4.215000000    -0.601000000     2.216000000
O     4.468000000     0.249000000     3.008000000
O     5.132000000    -1.364000000     1.980000000
