14
-77.21511
C     2.960000000    -2.140000000     0.735000000
H     3.845000000    -2.699000000     0.442000000
C     1.867000000    -1.979000000    -0.119000000
H     1.690000000    -2.687000000    -0.924000000
C     0.946000000    -0.978000000     0.098000000
H     0.152000000    -0.831000000    -0.547000000
C     1.053000000    -0.145000000     1.208000000
H     0.288000000     0.564000000     1.514000000
C     2.184000000    -0.291000000     2.049000000
H     2.380000000     0.509000000     2.758000000
C     3.137000000    -1.250000000     1.808000000
C     4.470000000    -1.073000000     2.520000000
O     4.813000000     0.001000000     2.937000000
O     5.277000000    -1.942000000     2.685000000
