14
-84.53994
C     2.933000000    -1.473000000     0.017000000
H     3.795000000    -2.055000000    -0.301000000
C     1.814000000    -1.459000000    -0.832000000
H     1.837000000    -1.976000000    -1.788000000
C     0.663000000    -0.814000000    -0.392000000
H    -0.253000000    -0.735000000    -0.953000000
C     0.609000000    -0.072000000     0.790000000
H    -0.258000000     0.536000000     1.036000000
C     1.757000000    -0.128000000     1.636000000
H     1.705000000     0.540000000     2.491000000
C     2.980000000    -0.732000000     1.205000000
C     4.312000000    -0.620000000     1.889000000
O     4.468000000     0.389000000     2.594000000
O     5.220000000    -1.296000000     1.557000000
