14
-79.65275
C     1.538000000    -1.742000000     0.246000000
H     2.103000000    -2.585000000    -0.144000000
C     0.544000000    -1.167000000    -0.523000000
H     0.191000000    -1.649000000    -1.430000000
C    -0.083000000     0.007000000    -0.035000000
H    -0.827000000     0.570000000    -0.585000000
C     0.227000000     0.511000000     1.164000000
H    -0.273000000     1.334000000     1.668000000
C     1.273000000    -0.097000000     1.868000000
H     1.671000000     0.365000000     2.769000000
C     1.914000000    -1.265000000     1.424000000
C     2.977000000    -1.980000000     2.283000000
O     3.096000000    -1.816000000     3.452000000
O     3.940000000    -2.489000000     1.654000000
