14
-90.44248
C     2.053000000    -1.927000000    -0.024000000
H     2.717000000    -2.716000000    -0.367000000
C     1.016000000    -1.418000000    -0.833000000
H     0.770000000    -1.817000000    -1.813000000
C     0.231000000    -0.411000000    -0.305000000
H    -0.604000000    -0.033000000    -0.868000000
C     0.424000000     0.179000000     0.957000000
H    -0.245000000     0.931000000     1.368000000
C     1.581000000    -0.206000000     1.635000000
H     1.810000000     0.195000000     2.619000000
C     2.326000000    -1.348000000     1.235000000
C     3.423000000    -1.904000000     2.069000000
O     3.405000000    -1.486000000     3.232000000
O     4.360000000    -2.554000000     1.638000000
