14
-76.38869
C     1.945000000    -1.294000000    -0.548000000
H     2.696000000    -1.875000000    -1.078000000
C     0.792000000    -0.814000000    -1.167000000
H     0.547000000    -1.022000000    -2.206000000
C    -0.025000000     0.113000000    -0.473000000
H    -0.985000000     0.412000000    -0.959000000
C     0.372000000     0.455000000     0.862000000
H    -0.339000000     1.073000000     1.404000000
C     1.391000000    -0.187000000     1.488000000
H     1.535000000    -0.174000000     2.566000000
C     2.189000000    -1.114000000     0.833000000
C     3.407000000    -1.708000000     1.531000000
O     3.751000000    -1.307000000     2.646000000
O     4.128000000    -2.563000000     1.120000000
