14
-86.68368
C     1.667000000    -0.481000000    -0.733000000
H     2.535000000    -0.872000000    -1.258000000
C     0.473000000    -0.631000000    -1.428000000
H     0.286000000    -0.992000000    -2.436000000
C    -0.705000000    -0.174000000    -0.870000000
H    -1.617000000    -0.284000000    -1.390000000
C    -0.684000000     0.333000000     0.408000000
H    -1.564000000     0.903000000     0.694000000
C     0.497000000     0.416000000     1.184000000
H     0.465000000     0.906000000     2.154000000
C     1.707000000    -0.007000000     0.606000000
C     2.987000000     0.130000000     1.283000000
O     2.973000000     0.845000000     2.294000000
O     3.962000000    -0.507000000     0.918000000
