14
-79.98533
C     2.221000000     1.444000000     1.204000000
H     2.678000000     2.411000000     1.008000000
C     1.226000000     1.084000000     0.319000000
H     0.875000000     1.753000000    -0.463000000
C     0.744000000    -0.245000000     0.314000000
H    -0.169000000    -0.503000000    -0.296000000
C     1.202000000    -1.160000000     1.281000000
H     0.763000000    -2.139000000     1.453000000
C     2.235000000    -0.738000000     2.119000000
H     2.534000000    -1.569000000     2.753000000
C     2.824000000     0.522000000     2.014000000
C     4.094000000     0.900000000     2.761000000
O     4.682000000     0.049000000     3.425000000
O     4.596000000     1.976000000     2.722000000
