14
-81.84730
C     0.900000000    -1.579000000     0.425000000
H     1.024000000    -2.517000000    -0.110000000
C    -0.126000000    -0.727000000     0.076000000
H    -0.782000000    -0.908000000    -0.772000000
C    -0.207000000     0.533000000     0.675000000
H    -0.960000000     1.241000000     0.398000000
C     0.623000000     0.845000000     1.760000000
H     0.565000000     1.823000000     2.232000000
C     1.588000000    -0.021000000     2.169000000
H     2.288000000     0.182000000     2.976000000
C     1.751000000    -1.286000000     1.546000000
C     2.997000000    -2.229000000     1.773000000
O     3.955000000    -1.919000000     2.419000000
O     3.102000000    -3.293000000     1.190000000
