14
-85.91099
C     1.385000000     0.929000000     0.573000000
H     2.071000000     1.766000000     0.479000000
C     0.090000000     0.936000000     0.099000000
H    -0.319000000     1.840000000    -0.344000000
C    -0.747000000    -0.185000000     0.140000000
H    -1.751000000    -0.190000000    -0.231000000
C    -0.262000000    -1.291000000     0.853000000
H    -0.824000000    -2.219000000     0.925000000
C     1.063000000    -1.311000000     1.282000000
H     1.366000000    -2.263000000     1.711000000
C     1.863000000    -0.257000000     1.192000000
C     3.267000000    -0.207000000     1.744000000
O     3.644000000    -1.218000000     2.310000000
O     4.045000000     0.621000000     1.324000000
