14
-88.93573
C     2.147000000     0.943000000     0.329000000
H     2.930000000     1.685000000     0.190000000
C     0.986000000     1.182000000    -0.331000000
H     0.861000000     2.091000000    -0.912000000
C    -0.094000000     0.312000000    -0.145000000
H    -1.169000000     0.524000000    -0.457000000
C     0.035000000    -0.784000000     0.671000000
H    -0.812000000    -1.444000000     0.839000000
C     1.245000000    -1.046000000     1.298000000
H     1.294000000    -2.029000000     1.759000000
C     2.309000000    -0.193000000     1.112000000
C     3.715000000    -0.597000000     1.681000000
O     3.732000000    -1.589000000     2.435000000
O     4.749000000    -0.101000000     1.244000000
