14
-86.09626
C     2.644000000     1.369000000     0.651000000
H     3.291000000     2.183000000     0.966000000
C     1.571000000     1.523000000    -0.208000000
H     1.298000000     2.513000000    -0.566000000
C     0.735000000     0.478000000    -0.437000000
H    -0.162000000     0.442000000    -1.061000000
C     1.000000000    -0.797000000     0.064000000
H     0.376000000    -1.641000000    -0.217000000
C     2.020000000    -0.954000000     0.958000000
H     2.229000000    -1.863000000     1.516000000
C     2.911000000     0.104000000     1.261000000
C     4.139000000    -0.028000000     2.119000000
O     4.137000000    -1.056000000     2.750000000
O     5.157000000     0.661000000     1.965000000
