14
-88.47760
C     2.391000000     1.209000000     0.543000000
H     2.897000000     2.066000000     0.105000000
C     1.177000000     0.729000000    -0.048000000
H     0.743000000     1.335000000    -0.840000000
C     0.570000000    -0.409000000     0.420000000
H    -0.334000000    -0.786000000    -0.007000000
C     1.147000000    -1.038000000     1.589000000
H     0.493000000    -1.770000000     2.054000000
C     2.354000000    -0.604000000     2.147000000
H     2.774000000    -0.998000000     3.070000000
C     2.984000000     0.529000000     1.618000000
C     4.282000000     1.041000000     2.160000000
O     4.849000000     0.548000000     3.156000000
O     4.895000000     1.735000000     1.376000000
