14
-82.32618
C     1.337000000     1.474000000    -0.026000000
H     1.839000000     2.352000000    -0.425000000
C    -0.011000000     1.169000000    -0.379000000
H    -0.577000000     1.741000000    -1.110000000
C    -0.556000000    -0.025000000     0.076000000
H    -1.459000000    -0.430000000    -0.385000000
C     0.177000000    -0.790000000     0.952000000
H    -0.228000000    -1.735000000     1.304000000
C     1.486000000    -0.466000000     1.318000000
H     1.967000000    -1.100000000     2.057000000
C     2.106000000     0.646000000     0.794000000
C     3.498000000     1.021000000     1.238000000
O     3.925000000     0.583000000     2.246000000
O     4.258000000     1.590000000     0.489000000
