14
-86.24589
C     1.938000000     1.303000000     0.565000000
H     2.565000000     2.150000000     0.299000000
C     0.765000000     1.043000000    -0.102000000
H     0.531000000     1.588000000    -1.013000000
C     0.016000000    -0.084000000     0.219000000
H    -0.857000000    -0.324000000    -0.352000000
C     0.368000000    -0.879000000     1.304000000
H    -0.235000000    -1.776000000     1.428000000
C     1.527000000    -0.596000000     2.035000000
H     1.780000000    -1.306000000     2.818000000
C     2.308000000     0.524000000     1.661000000
C     3.620000000     0.859000000     2.340000000
O     3.852000000     0.385000000     3.407000000
O     4.497000000     1.489000000     1.785000000
