14
-81.88125
C     1.589000000     1.327000000    -0.156000000
H     2.160000000     2.138000000    -0.601000000
C     0.394000000     0.820000000    -0.678000000
H    -0.042000000     1.249000000    -1.577000000
C    -0.167000000    -0.259000000    -0.022000000
H    -1.105000000    -0.685000000    -0.393000000
C     0.326000000    -0.826000000     1.167000000
H    -0.118000000    -1.699000000     1.639000000
C     1.498000000    -0.253000000     1.632000000
H     1.962000000    -0.665000000     2.525000000
C     2.201000000     0.753000000     0.980000000
C     3.478000000     1.418000000     1.441000000
O     3.994000000     0.951000000     2.467000000
O     4.232000000     2.008000000     0.707000000
