14
-76.09417
C     2.392000000     1.286000000    -0.021000000
H     2.986000000     1.862000000    -0.725000000
C     1.086000000     1.127000000    -0.427000000
H     0.688000000     1.521000000    -1.359000000
C     0.280000000     0.221000000     0.243000000
H    -0.718000000     0.178000000    -0.071000000
C     0.781000000    -0.430000000     1.400000000
H     0.151000000    -1.109000000     1.969000000
C     2.051000000    -0.093000000     1.967000000
H     2.382000000    -0.438000000     2.943000000
C     2.894000000     0.827000000     1.189000000
C     4.269000000     1.067000000     1.739000000
O     4.607000000     0.604000000     2.805000000
O     5.133000000     1.577000000     1.103000000
