14
-86.95200
C     1.980000000     0.405000000     0.845000000
H     2.595000000     1.262000000     0.583000000
C     0.699000000     0.335000000     0.329000000
H     0.395000000     0.996000000    -0.478000000
C    -0.124000000    -0.736000000     0.648000000
H    -1.119000000    -0.792000000     0.289000000
C     0.246000000    -1.703000000     1.609000000
H    -0.427000000    -2.466000000     1.990000000
C     1.519000000    -1.661000000     2.156000000
H     1.648000000    -2.425000000     2.918000000
C     2.395000000    -0.628000000     1.773000000
C     3.814000000    -0.545000000     2.353000000
O     4.210000000    -1.600000000     2.979000000
O     4.534000000     0.316000000     1.850000000
