14
-79.76594
C     1.925000000     0.990000000     0.296000000
H     2.232000000     1.911000000    -0.193000000
C     0.674000000     0.468000000     0.116000000
H     0.129000000     0.691000000    -0.798000000
C     0.221000000    -0.529000000     0.974000000
H    -0.803000000    -0.743000000     0.768000000
C     1.004000000    -1.114000000     1.946000000
H     0.638000000    -1.968000000     2.511000000
C     2.264000000    -0.529000000     2.133000000
H     2.915000000    -0.902000000     2.919000000
C     2.683000000     0.563000000     1.362000000
C     3.975000000     1.192000000     1.539000000
O     4.607000000     1.171000000     2.619000000
O     4.533000000     1.807000000     0.656000000
