14
-84.93874
C     1.775000000     0.452000000     0.214000000
H     2.605000000     0.967000000    -0.263000000
C     0.539000000     0.701000000    -0.337000000
H     0.392000000     1.402000000    -1.154000000
C    -0.602000000     0.063000000     0.230000000
H    -1.627000000     0.347000000     0.018000000
C    -0.373000000    -0.828000000     1.318000000
H    -1.240000000    -1.326000000     1.745000000
C     0.920000000    -1.055000000     1.786000000
H     1.065000000    -1.787000000     2.577000000
C     2.059000000    -0.490000000     1.222000000
C     3.370000000    -0.634000000     1.825000000
O     3.585000000    -1.395000000     2.800000000
O     4.357000000    -0.267000000     1.172000000
