14
-91.77740
C     2.249000000    -0.376000000    -0.035000000
H     3.175000000    -0.421000000    -0.602000000
C     1.217000000     0.446000000    -0.536000000
H     1.472000000     1.148000000    -1.326000000
C    -0.038000000     0.357000000     0.012000000
H    -0.850000000     0.960000000    -0.378000000
C    -0.230000000    -0.457000000     1.139000000
H    -1.174000000    -0.330000000     1.664000000
C     0.762000000    -1.236000000     1.670000000
H     0.570000000    -1.889000000     2.518000000
C     2.003000000    -1.239000000     1.056000000
C     3.069000000    -2.152000000     1.601000000
O     2.958000000    -2.520000000     2.754000000
O     4.002000000    -2.538000000     0.908000000
