14
-81.13751
C     2.460000000     0.074000000     0.549000000
H     3.436000000     0.378000000     0.178000000
C     1.304000000     0.453000000    -0.036000000
H     1.403000000     1.066000000    -0.929000000
C     0.054000000     0.035000000     0.462000000
H    -0.837000000     0.412000000    -0.069000000
C    -0.046000000    -0.749000000     1.558000000
H    -1.011000000    -1.127000000     1.886000000
C     1.070000000    -1.140000000     2.194000000
H     1.005000000    -1.747000000     3.093000000
C     2.332000000    -0.656000000     1.781000000
C     3.641000000    -1.104000000     2.448000000
O     3.584000000    -1.767000000     3.436000000
O     4.720000000    -1.023000000     1.875000000
