14
-89.87243
C     2.508000000    -2.062000000    -0.145000000
H     3.079000000    -2.893000000    -0.551000000
C     1.142000000    -1.976000000    -0.572000000
H     0.639000000    -2.630000000    -1.279000000
C     0.358000000    -0.876000000    -0.151000000
H    -0.611000000    -0.754000000    -0.546000000
C     0.890000000     0.060000000     0.741000000
H     0.252000000     0.907000000     0.981000000
C     2.191000000    -0.096000000     1.249000000
H     2.587000000     0.682000000     1.897000000
C     3.012000000    -1.161000000     0.833000000
C     4.423000000    -1.220000000     1.327000000
O     4.843000000    -0.607000000     2.297000000
O     5.060000000    -2.174000000     0.829000000
