14
-87.82120
C     1.924000000     0.013000000     0.113000000
H     2.658000000     0.377000000    -0.602000000
C     0.506000000     0.188000000    -0.142000000
H     0.181000000     0.748000000    -1.014000000
C    -0.429000000    -0.229000000     0.821000000
H    -1.523000000    -0.100000000     0.645000000
C     0.018000000    -0.821000000     1.986000000
H    -0.685000000    -1.189000000     2.729000000
C     1.400000000    -0.966000000     2.219000000
H     1.744000000    -1.278000000     3.203000000
C     2.347000000    -0.477000000     1.351000000
C     3.824000000    -0.369000000     1.687000000
O     4.194000000    -0.738000000     2.750000000
O     4.574000000    -0.120000000     0.757000000
