14
-90.91046
C     2.082000000    -1.193000000    -0.354000000
H     2.619000000    -2.051000000    -0.752000000
C     0.728000000    -1.120000000    -0.757000000
H     0.347000000    -1.872000000    -1.444000000
C    -0.171000000    -0.094000000    -0.342000000
H    -1.243000000    -0.072000000    -0.538000000
C     0.344000000     0.738000000     0.633000000
H    -0.326000000     1.503000000     1.015000000
C     1.671000000     0.642000000     1.139000000
H     1.947000000     1.350000000     1.916000000
C     2.577000000    -0.292000000     0.591000000
C     3.995000000    -0.321000000     1.090000000
O     4.320000000     0.313000000     2.103000000
O     4.781000000    -0.955000000     0.411000000
