14
-82.52659
C     3.142000000     0.700000000    -0.575000000
H     3.757000000     0.404000000    -1.422000000
C     1.746000000     0.547000000    -0.603000000
H     1.241000000     0.167000000    -1.487000000
C     0.909000000     0.807000000     0.483000000
H    -0.026000000     0.602000000     0.290000000
C     1.490000000     1.324000000     1.618000000
H     0.900000000     1.499000000     2.514000000
C     2.865000000     1.406000000     1.719000000
H     3.278000000     1.811000000     2.638000000
C     3.671000000     1.055000000     0.623000000
C     5.211000000     1.229000000     0.723000000
O     5.679000000     1.909000000     1.653000000
O     5.892000000     0.550000000     0.039000000
