14
-84.02102
C    -0.540000000     0.479000000    -2.141000000
H    -1.151000000     0.135000000    -2.973000000
C    -0.718000000    -0.199000000    -0.901000000
H    -1.383000000    -1.055000000    -0.826000000
C     0.082000000     0.166000000     0.163000000
H    -0.074000000    -0.350000000     1.092000000
C     1.090000000     1.184000000     0.048000000
H     1.645000000     1.407000000     0.956000000
C     1.241000000     1.737000000    -1.193000000
H     1.983000000     2.515000000    -1.355000000
C     0.436000000     1.492000000    -2.291000000
C     0.558000000     2.295000000    -3.633000000
O     1.296000000     3.232000000    -3.693000000
O     0.038000000     1.908000000    -4.638000000
