14
-88.31093
C     2.807000000    -0.321000000    -0.765000000
H     3.278000000    -0.897000000    -1.557000000
C     1.426000000    -0.359000000    -0.687000000
H     0.945000000    -0.938000000    -1.471000000
C     0.749000000     0.387000000     0.214000000
H    -0.375000000     0.429000000     0.205000000
C     1.460000000     1.286000000     1.070000000
H     0.893000000     1.912000000     1.753000000
C     2.830000000     1.213000000     1.130000000
H     3.292000000     1.752000000     1.953000000
C     3.541000000     0.382000000     0.234000000
C     5.037000000     0.358000000     0.422000000
O     5.563000000     1.006000000     1.285000000
O     5.642000000    -0.386000000    -0.350000000
