14
-89.26970
C     2.616000000    -0.530000000    -0.820000000
H     3.327000000    -1.048000000    -1.459000000
C     1.273000000    -0.908000000    -0.847000000
H     0.935000000    -1.711000000    -1.497000000
C     0.372000000    -0.174000000    -0.083000000
H    -0.670000000    -0.356000000    -0.082000000
C     0.818000000     0.884000000     0.747000000
H     0.095000000     1.464000000     1.316000000
C     2.159000000     1.264000000     0.824000000
H     2.590000000     2.073000000     1.409000000
C     3.078000000     0.553000000    -0.009000000
C     4.590000000     0.863000000    -0.119000000
O     5.032000000     1.522000000     0.791000000
O     5.350000000     0.200000000    -0.847000000
