14
-86.52447
C     2.038000000     0.021000000    -0.594000000
H     2.591000000    -0.552000000    -1.335000000
C     0.665000000    -0.025000000    -0.580000000
H     0.141000000    -0.700000000    -1.252000000
C    -0.004000000     0.820000000     0.296000000
H    -1.125000000     0.815000000     0.149000000
C     0.708000000     1.633000000     1.168000000
H     0.173000000     2.313000000     1.826000000
C     2.048000000     1.631000000     1.224000000
H     2.510000000     2.175000000     2.044000000
C     2.716000000     0.777000000     0.331000000
C     4.194000000     0.726000000     0.526000000
O     4.627000000     1.362000000     1.467000000
O     4.919000000     0.044000000    -0.182000000
