14
-82.63517
C     0.415000000     0.307000000    -2.422000000
H    -0.005000000    -0.155000000    -3.312000000
C    -0.017000000    -0.147000000    -1.156000000
H    -0.842000000    -0.854000000    -1.175000000
C     0.464000000     0.385000000     0.017000000
H     0.034000000    -0.009000000     0.950000000
C     1.419000000     1.364000000    -0.076000000
H     1.911000000     1.843000000     0.766000000
C     1.897000000     1.893000000    -1.311000000
H     2.671000000     2.656000000    -1.296000000
C     1.342000000     1.377000000    -2.481000000
C     1.681000000     1.829000000    -3.834000000
O     2.283000000     2.857000000    -4.019000000
O     1.243000000     1.291000000    -4.927000000
