14
-83.89048
C     2.560000000     1.268000000    -0.410000000
H     3.250000000     1.155000000    -1.243000000
C     1.213000000     1.165000000    -0.667000000
H     0.832000000     1.059000000    -1.679000000
C     0.317000000     0.904000000     0.411000000
H    -0.801000000     0.702000000     0.392000000
C     0.798000000     1.007000000     1.683000000
H     0.053000000     1.003000000     2.475000000
C     2.143000000     1.147000000     1.933000000
H     2.406000000     1.165000000     2.988000000
C     3.091000000     1.253000000     0.901000000
C     4.616000000     1.356000000     1.268000000
O     5.067000000     0.916000000     2.294000000
O     5.326000000     1.940000000     0.471000000
