14
-92.03980
C     2.610000000     1.370000000    -1.038000000
H     3.389000000     1.899000000    -1.582000000
C     1.331000000     1.249000000    -1.551000000
H     1.079000000     1.801000000    -2.453000000
C     0.279000000     0.690000000    -0.854000000
H    -0.752000000     0.702000000    -1.180000000
C     0.571000000     0.041000000     0.335000000
H    -0.240000000    -0.433000000     0.882000000
C     1.844000000     0.014000000     0.828000000
H     2.150000000    -0.439000000     1.767000000
C     2.890000000     0.740000000     0.195000000
C     4.326000000     0.777000000     0.799000000
O     4.450000000     0.346000000     1.898000000
O     5.207000000     1.234000000     0.081000000
