14
-88.84841
C     1.266000000    -0.174000000    -1.127000000
H     1.719000000     0.232000000    -2.028000000
C    -0.092000000    -0.220000000    -0.877000000
H    -0.823000000     0.053000000    -1.634000000
C    -0.541000000    -0.449000000     0.414000000
H    -1.620000000    -0.442000000     0.566000000
C     0.263000000    -0.793000000     1.419000000
H    -0.125000000    -0.989000000     2.415000000
C     1.631000000    -0.813000000     1.217000000
H     2.246000000    -1.102000000     2.065000000
C     2.125000000    -0.555000000    -0.049000000
C     3.610000000    -0.599000000    -0.213000000
O     4.310000000    -0.884000000     0.774000000
O     4.133000000    -0.410000000    -1.299000000
