14
-84.50100
C     1.095000000     0.110000000    -0.824000000
H     1.588000000     0.453000000    -1.729000000
C    -0.285000000    -0.009000000    -0.824000000
H    -0.907000000     0.161000000    -1.698000000
C    -0.977000000    -0.500000000     0.273000000
H    -2.066000000    -0.469000000     0.316000000
C    -0.303000000    -0.718000000     1.445000000
H    -0.866000000    -1.031000000     2.320000000
C     1.087000000    -0.605000000     1.455000000
H     1.517000000    -0.939000000     2.396000000
C     1.799000000    -0.165000000     0.350000000
C     3.326000000     0.003000000     0.487000000
O     3.851000000    -0.234000000     1.511000000
O     4.036000000     0.109000000    -0.572000000
