14
-87.59659
C     1.398000000     0.142000000    -1.150000000
H     1.811000000     0.562000000    -2.064000000
C    -0.012000000     0.098000000    -1.054000000
H    -0.589000000     0.387000000    -1.929000000
C    -0.600000000    -0.174000000     0.156000000
H    -1.700000000    -0.109000000     0.266000000
C     0.203000000    -0.526000000     1.196000000
H    -0.141000000    -0.829000000     2.182000000
C     1.597000000    -0.563000000     1.066000000
H     2.245000000    -0.766000000     1.915000000
C     2.257000000    -0.156000000    -0.135000000
C     3.778000000    -0.030000000    -0.207000000
O     4.387000000    -0.166000000     0.847000000
O     4.308000000     0.265000000    -1.222000000
