14
-83.18719
C     1.924000000     0.859000000     0.216000000
H     2.819000000     1.461000000     0.083000000
C     0.775000000     1.098000000    -0.589000000
H     0.787000000     1.762000000    -1.450000000
C    -0.446000000     0.477000000    -0.240000000
H    -1.366000000     0.705000000    -0.810000000
C    -0.524000000    -0.452000000     0.751000000
H    -1.514000000    -0.835000000     0.986000000
C     0.639000000    -0.670000000     1.548000000
H     0.499000000    -1.314000000     2.413000000
C     1.833000000    -0.070000000     1.283000000
C     3.038000000    -0.362000000     2.155000000
O     2.957000000    -0.830000000     3.288000000
O     4.126000000    -0.060000000     1.797000000
