14
-79.67305
C     1.443000000     0.950000000    -0.077000000
H     2.047000000     1.710000000    -0.566000000
C     0.207000000     0.476000000    -0.623000000
H    -0.249000000     0.828000000    -1.545000000
C    -0.543000000    -0.550000000     0.011000000
H    -1.465000000    -0.963000000    -0.335000000
C    -0.010000000    -1.190000000     1.078000000
H    -0.497000000    -1.914000000     1.726000000
C     1.290000000    -0.866000000     1.502000000
H     1.754000000    -1.353000000     2.356000000
C     2.027000000     0.156000000     0.919000000
C     3.432000000     0.359000000     1.495000000
O     4.095000000    -0.554000000     1.950000000
O     3.851000000     1.478000000     1.772000000
