14
-89.71319
C     2.123000000    -1.827000000     0.926000000
H     2.955000000    -2.520000000     1.029000000
C     1.128000000    -2.125000000     0.026000000
H     1.164000000    -3.092000000    -0.468000000
C     0.144000000    -1.124000000    -0.300000000
H    -0.687000000    -1.254000000    -1.028000000
C     0.213000000     0.155000000     0.319000000
H    -0.554000000     0.897000000     0.115000000
C     1.156000000     0.383000000     1.328000000
H     1.192000000     1.323000000     1.873000000
C     2.126000000    -0.640000000     1.674000000
C     3.236000000    -0.475000000     2.738000000
O     3.402000000     0.632000000     3.150000000
O     3.893000000    -1.473000000     3.125000000
