14
-86.55469
C     1.978000000    -1.650000000     0.310000000
H     2.541000000    -2.565000000     0.147000000
C     1.015000000    -1.199000000    -0.568000000
H     0.874000000    -1.655000000    -1.545000000
C     0.156000000    -0.166000000    -0.260000000
H    -0.564000000     0.103000000    -1.071000000
C     0.252000000     0.532000000     0.909000000
H    -0.414000000     1.336000000     1.213000000
C     1.235000000     0.089000000     1.844000000
H     1.511000000     0.669000000     2.721000000
C     2.139000000    -0.949000000     1.491000000
C     3.260000000    -1.237000000     2.466000000
O     3.254000000    -0.791000000     3.605000000
O     4.044000000    -2.102000000     2.166000000
