14
-84.09970
C     1.823000000    -1.613000000     0.333000000
H     2.388000000    -2.539000000     0.404000000
C     0.625000000    -1.559000000    -0.297000000
H     0.273000000    -2.454000000    -0.803000000
C    -0.136000000    -0.404000000    -0.280000000
H    -1.107000000    -0.501000000    -0.615000000
C     0.339000000     0.772000000     0.331000000
H    -0.244000000     1.689000000     0.298000000
C     1.508000000     0.620000000     1.089000000
H     1.774000000     1.463000000     1.721000000
C     2.298000000    -0.509000000     1.032000000
C     3.699000000    -0.516000000     1.694000000
O     4.073000000     0.508000000     2.233000000
O     4.369000000    -1.501000000     1.823000000
