14
-81.97656
C     2.076000000    -1.512000000    -0.139000000
H     2.660000000    -2.419000000    -0.277000000
C     0.734000000    -1.557000000    -0.071000000
H     0.244000000    -2.522000000    -0.166000000
C    -0.017000000    -0.454000000     0.075000000
H    -1.090000000    -0.520000000     0.268000000
C     0.588000000     0.811000000     0.151000000
H     0.010000000     1.722000000     0.278000000
C     2.001000000     0.878000000     0.075000000
H     2.479000000     1.846000000     0.203000000
C     2.739000000    -0.281000000     0.069000000
C     4.233000000    -0.198000000     0.037000000
O     4.687000000     0.843000000     0.493000000
O     4.929000000    -1.181000000    -0.017000000
