14
-85.08672
C     2.173000000    -1.421000000    -0.071000000
H     2.891000000    -2.237000000    -0.059000000
C     0.917000000    -1.651000000    -0.499000000
H     0.705000000    -2.629000000    -0.924000000
C    -0.087000000    -0.640000000    -0.433000000
H    -1.085000000    -0.878000000    -0.741000000
C     0.246000000     0.561000000     0.132000000
H    -0.511000000     1.301000000     0.378000000
C     1.534000000     0.807000000     0.552000000
H     1.832000000     1.726000000     1.049000000
C     2.483000000    -0.178000000     0.499000000
C     3.914000000     0.144000000     0.974000000
O     4.202000000     1.063000000     1.705000000
O     4.710000000    -0.681000000     0.676000000
