14
-83.99617
C     2.787000000    -1.900000000    -0.428000000
H     3.546000000    -2.673000000    -0.516000000
C     1.435000000    -2.259000000    -0.261000000
H     1.043000000    -3.270000000    -0.328000000
C     0.501000000    -1.283000000    -0.038000000
H    -0.530000000    -1.677000000     0.086000000
C     0.868000000     0.008000000     0.039000000
H     0.141000000     0.815000000     0.086000000
C     2.200000000     0.352000000    -0.149000000
H     2.438000000     1.411000000    -0.207000000
C     3.209000000    -0.603000000    -0.352000000
C     4.690000000    -0.216000000    -0.367000000
O     4.977000000     0.921000000    -0.004000000
O     5.575000000    -1.069000000    -0.322000000
