14
-91.97700
C     1.947000000    -2.187000000     1.719000000
H     2.187000000    -2.991000000     2.411000000
C     1.001000000    -1.165000000     2.016000000
H     0.484000000    -1.074000000     2.968000000
C     0.620000000    -0.242000000     1.075000000
H    -0.149000000     0.474000000     1.318000000
C     1.172000000    -0.315000000    -0.231000000
H     0.859000000     0.337000000    -1.043000000
C     2.082000000    -1.338000000    -0.518000000
H     2.483000000    -1.311000000    -1.528000000
C     2.490000000    -2.273000000     0.474000000
C     3.534000000    -3.325000000     0.145000000
O     4.114000000    -3.264000000    -0.928000000
O     3.907000000    -4.167000000     0.998000000
