14
-85.36860
C     1.509000000    -1.698000000     1.141000000
H     1.773000000    -2.563000000     1.744000000
C     0.369000000    -0.964000000     1.388000000
H    -0.131000000    -1.182000000     2.328000000
C    -0.171000000    -0.066000000     0.441000000
H    -1.027000000     0.519000000     0.622000000
C     0.538000000     0.020000000    -0.788000000
H     0.031000000     0.703000000    -1.465000000
C     1.623000000    -0.770000000    -1.053000000
H     2.097000000    -0.802000000    -2.030000000
C     2.215000000    -1.642000000    -0.024000000
C     3.510000000    -2.475000000    -0.189000000
O     4.151000000    -2.249000000    -1.184000000
O     3.903000000    -3.253000000     0.687000000
