14
-90.35533
C    -1.220000000    -0.003000000    -2.565000000
H    -1.939000000    -0.277000000    -3.334000000
C    -1.286000000    -0.555000000    -1.297000000
H    -2.045000000    -1.311000000    -1.112000000
C    -0.276000000    -0.289000000    -0.338000000
H    -0.223000000    -0.868000000     0.621000000
C     0.743000000     0.630000000    -0.735000000
H     1.564000000     0.761000000    -0.035000000
C     0.728000000     1.200000000    -1.969000000
H     1.483000000     1.954000000    -2.181000000
C    -0.232000000     0.913000000    -2.993000000
C    -0.196000000     1.519000000    -4.333000000
O     0.595000000     2.444000000    -4.599000000
O    -1.070000000     1.166000000    -5.138000000
