14
-87.74566
C     1.627000000    -1.309000000    -0.288000000
H     1.824000000    -2.357000000    -0.495000000
C     0.315000000    -0.795000000    -0.397000000
H    -0.464000000    -1.483000000    -0.713000000
C     0.054000000     0.550000000    -0.110000000
H    -0.962000000     0.960000000    -0.160000000
C     1.091000000     1.375000000     0.351000000
H     0.890000000     2.425000000     0.546000000
C     2.346000000     0.789000000     0.522000000
H     3.210000000     1.342000000     0.881000000
C     2.680000000    -0.485000000     0.088000000
C     4.048000000    -1.038000000     0.349000000
O     5.014000000    -0.320000000     0.640000000
O     4.180000000    -2.235000000     0.590000000
