14
-82.73796
C     1.949000000    -1.024000000     1.387000000
H     2.175000000    -1.653000000     2.245000000
C     0.592000000    -0.772000000     1.096000000
H    -0.234000000    -1.172000000     1.679000000
C     0.276000000     0.001000000     0.048000000
H    -0.791000000     0.293000000    -0.056000000
C     1.214000000     0.541000000    -0.781000000
H     0.848000000     1.185000000    -1.576000000
C     2.558000000     0.343000000    -0.521000000
H     3.299000000     0.767000000    -1.196000000
C     2.963000000    -0.493000000     0.560000000
C     4.376000000    -0.951000000     0.703000000
O     5.295000000    -0.431000000     0.043000000
O     4.662000000    -1.888000000     1.366000000
