14
-90.86157
C     1.747000000    -2.423000000     0.820000000
H     1.972000000    -3.157000000     1.590000000
C     0.562000000    -1.753000000     0.903000000
H    -0.044000000    -1.954000000     1.783000000
C     0.191000000    -0.805000000    -0.098000000
H    -0.754000000    -0.288000000    -0.102000000
C     1.046000000    -0.677000000    -1.159000000
H     0.796000000     0.082000000    -1.895000000
C     2.248000000    -1.401000000    -1.259000000
H     2.920000000    -1.201000000    -2.090000000
C     2.643000000    -2.270000000    -0.251000000
C     3.968000000    -3.077000000    -0.201000000
O     4.418000000    -3.326000000    -1.312000000
O     4.492000000    -3.481000000     0.809000000
