14
-81.38591
C     0.680000000    -1.000000000     1.697000000
H     0.842000000    -1.534000000     2.630000000
C    -0.298000000    -0.040000000     1.587000000
H    -0.941000000     0.189000000     2.433000000
C    -0.506000000     0.570000000     0.394000000
H    -1.399000000     1.165000000     0.161000000
C     0.222000000     0.272000000    -0.779000000
H     0.003000000     0.806000000    -1.700000000
C     1.145000000    -0.695000000    -0.662000000
H     1.676000000    -0.958000000    -1.574000000
C     1.433000000    -1.412000000     0.577000000
C     2.482000000    -2.459000000     0.730000000
O     3.165000000    -2.551000000    -0.270000000
O     2.887000000    -2.819000000     1.853000000
