14
-81.56335
C     1.762000000    -1.600000000     2.150000000
H     1.825000000    -1.874000000     3.200000000
C     1.252000000    -0.333000000     1.803000000
H     0.693000000     0.090000000     2.635000000
C     1.175000000     0.114000000     0.467000000
H     0.636000000     1.017000000     0.279000000
C     1.908000000    -0.541000000    -0.496000000
H     2.035000000    -0.012000000    -1.436000000
C     2.616000000    -1.722000000    -0.134000000
H     3.232000000    -2.178000000    -0.905000000
C     2.437000000    -2.324000000     1.103000000
C     3.180000000    -3.559000000     1.564000000
O     3.919000000    -4.159000000     0.852000000
O     3.235000000    -3.724000000     2.795000000
