14
-81.36793
C     1.476000000    -1.464000000     1.422000000
H     2.019000000    -1.945000000     2.232000000
C     0.572000000    -0.395000000     1.600000000
H     0.420000000    -0.051000000     2.620000000
C    -0.094000000     0.228000000     0.559000000
H    -0.769000000     1.088000000     0.671000000
C     0.022000000    -0.226000000    -0.707000000
H    -0.542000000     0.194000000    -1.536000000
C     0.904000000    -1.330000000    -0.884000000
H     0.985000000    -1.659000000    -1.917000000
C     1.578000000    -1.947000000     0.110000000
C     2.541000000    -3.014000000    -0.237000000
O     2.606000000    -3.533000000    -1.300000000
O     3.390000000    -3.411000000     0.602000000
