14
-84.35534
C     0.918000000    -1.674000000     1.055000000
H     0.757000000    -2.326000000     1.910000000
C    -0.041000000    -0.750000000     0.588000000
H    -0.929000000    -0.406000000     1.111000000
C     0.113000000    -0.198000000    -0.666000000
H    -0.721000000     0.466000000    -1.082000000
C     1.246000000    -0.483000000    -1.468000000
H     1.390000000    -0.030000000    -2.446000000
C     2.224000000    -1.406000000    -0.980000000
H     3.028000000    -1.749000000    -1.627000000
C     2.071000000    -1.976000000     0.305000000
C     3.107000000    -2.937000000     0.881000000
O     3.803000000    -3.612000000     0.157000000
O     3.115000000    -3.248000000     2.066000000
