14
-90.17239
C     2.282000000    -1.048000000     1.501000000
H     2.734000000    -1.370000000     2.436000000
C     0.930000000    -0.656000000     1.376000000
H     0.280000000    -0.751000000     2.242000000
C     0.414000000    -0.284000000     0.128000000
H    -0.587000000     0.035000000     0.030000000
C     1.252000000    -0.201000000    -1.012000000
H     0.790000000     0.079000000    -1.956000000
C     2.580000000    -0.634000000    -0.872000000
H     3.329000000    -0.690000000    -1.657000000
C     3.083000000    -1.031000000     0.379000000
C     4.494000000    -1.542000000     0.510000000
O     5.187000000    -1.587000000    -0.479000000
O     4.894000000    -1.888000000     1.579000000
