14
-82.85294
C    -1.952000000    -0.306000000    -2.607000000
H    -2.968000000    -0.128000000    -2.951000000
C    -1.780000000    -0.739000000    -1.356000000
H    -2.652000000    -1.061000000    -0.793000000
C    -0.515000000    -0.940000000    -0.852000000
H    -0.455000000    -1.361000000     0.130000000
C     0.562000000    -0.659000000    -1.585000000
H     1.504000000    -0.900000000    -1.100000000
C     0.479000000    -0.206000000    -2.905000000
H     1.367000000    -0.049000000    -3.512000000
C    -0.833000000     0.061000000    -3.413000000
C    -0.995000000     0.718000000    -4.779000000
O     0.003000000     1.215000000    -5.342000000
O    -2.012000000     0.633000000    -5.408000000
