14
-83.03579
C     2.348000000    -2.332000000     0.693000000
H     2.500000000    -3.102000000     1.445000000
C     1.051000000    -1.874000000     0.433000000
H     0.212000000    -2.342000000     0.940000000
C     0.858000000    -0.846000000    -0.474000000
H    -0.134000000    -0.469000000    -0.602000000
C     1.908000000    -0.332000000    -1.184000000
H     1.821000000     0.508000000    -1.869000000
C     3.229000000    -0.857000000    -0.960000000
H     4.076000000    -0.588000000    -1.587000000
C     3.468000000    -1.823000000     0.013000000
C     4.869000000    -2.517000000     0.132000000
O     5.833000000    -2.165000000    -0.497000000
O     5.103000000    -3.463000000     0.871000000
