14
-89.46522
C     2.697000000    -0.880000000     1.084000000
H     3.206000000    -0.978000000     2.040000000
C     1.425000000    -0.356000000     1.101000000
H     0.944000000    -0.185000000     2.060000000
C     0.798000000    -0.059000000    -0.127000000
H    -0.169000000     0.416000000    -0.169000000
C     1.402000000    -0.452000000    -1.328000000
H     0.839000000    -0.249000000    -2.235000000
C     2.574000000    -1.172000000    -1.341000000
H     3.075000000    -1.553000000    -2.228000000
C     3.248000000    -1.370000000    -0.163000000
C     4.612000000    -1.988000000    -0.047000000
O     5.238000000    -2.391000000    -1.057000000
O     5.115000000    -2.135000000     1.042000000
