14
-84.66166
C     1.752000000    -0.948000000     0.888000000
H     1.901000000    -1.361000000     1.882000000
C     0.590000000    -0.228000000     0.537000000
H    -0.229000000    -0.017000000     1.220000000
C     0.443000000     0.222000000    -0.767000000
H    -0.415000000     0.744000000    -1.203000000
C     1.446000000    -0.049000000    -1.680000000
H     1.179000000     0.219000000    -2.698000000
C     2.698000000    -0.656000000    -1.329000000
H     3.386000000    -0.736000000    -2.167000000
C     2.800000000    -1.186000000    -0.043000000
C     3.993000000    -2.083000000     0.229000000
O     4.710000000    -2.441000000    -0.681000000
O     4.263000000    -2.443000000     1.346000000
