14
-82.12383
C     1.934000000    -1.455000000     0.345000000
H     2.707000000    -2.058000000     0.816000000
C     0.791000000    -1.205000000     1.118000000
H     0.730000000    -1.624000000     2.120000000
C    -0.181000000    -0.383000000     0.658000000
H    -1.111000000    -0.192000000     1.240000000
C    -0.157000000     0.176000000    -0.606000000
H    -0.991000000     0.709000000    -1.056000000
C     0.915000000    -0.207000000    -1.372000000
H     0.952000000     0.243000000    -2.360000000
C     2.053000000    -0.864000000    -0.891000000
C     3.222000000    -1.113000000    -1.849000000
O     3.124000000    -0.886000000    -3.030000000
O     4.178000000    -1.833000000    -1.511000000
