14
-79.07221
C     0.725000000    -1.855000000     0.053000000
H     0.944000000    -2.606000000     0.809000000
C     0.234000000    -0.632000000     0.476000000
H     0.027000000    -0.646000000     1.543000000
C    -0.019000000     0.338000000    -0.466000000
H    -0.521000000     1.189000000    -0.069000000
C     0.380000000     0.192000000    -1.777000000
H     0.215000000     0.913000000    -2.574000000
C     1.024000000    -0.988000000    -2.179000000
H     1.387000000    -1.243000000    -3.171000000
C     1.039000000    -2.041000000    -1.253000000
C     1.553000000    -3.365000000    -1.611000000
O     1.735000000    -3.498000000    -2.757000000
O     1.739000000    -4.242000000    -0.752000000
