14
-82.35853
C     0.849000000    -2.019000000     0.398000000
H     0.962000000    -2.793000000     1.153000000
C     0.193000000    -0.791000000     0.705000000
H     0.006000000    -0.683000000     1.770000000
C    -0.168000000     0.151000000    -0.278000000
H    -0.703000000     1.076000000     0.038000000
C     0.081000000    -0.218000000    -1.617000000
H     0.063000000     0.565000000    -2.371000000
C     0.616000000    -1.453000000    -1.954000000
H     0.784000000    -1.660000000    -3.008000000
C     0.966000000    -2.387000000    -0.945000000
C     1.490000000    -3.746000000    -1.366000000
O     1.578000000    -4.105000000    -2.564000000
O     2.269000000    -4.293000000    -0.579000000
