14
-78.91022
C     2.354000000    -1.151000000    -0.312000000
H     3.436000000    -1.247000000    -0.285000000
C     1.857000000     0.103000000    -0.023000000
H     2.545000000     0.900000000     0.248000000
C     0.478000000     0.238000000     0.043000000
H    -0.035000000     1.120000000     0.392000000
C    -0.358000000    -0.810000000    -0.209000000
H    -1.429000000    -0.647000000    -0.127000000
C     0.223000000    -2.003000000    -0.659000000
H    -0.335000000    -2.840000000    -1.071000000
C     1.576000000    -2.212000000    -0.640000000
C     2.191000000    -3.517000000    -1.103000000
O     1.512000000    -4.440000000    -1.528000000
O     3.353000000    -3.664000000    -1.124000000
