14
-85.18487
C    -0.473000000     0.263000000    -2.494000000
H    -1.027000000     0.062000000    -3.408000000
C    -0.894000000    -0.424000000    -1.334000000
H    -1.760000000    -1.080000000    -1.324000000
C    -0.031000000    -0.226000000    -0.224000000
H    -0.260000000    -0.765000000     0.689000000
C     1.086000000     0.521000000    -0.225000000
H     1.518000000     0.721000000     0.752000000
C     1.434000000     1.230000000    -1.378000000
H     2.304000000     1.871000000    -1.265000000
C     0.630000000     1.095000000    -2.537000000
C     1.093000000     1.688000000    -3.833000000
O     2.037000000     2.451000000    -3.752000000
O     0.444000000     1.607000000    -4.872000000
