14
-83.02281
C     1.599000000    -2.318000000     0.167000000
H     1.989000000    -2.667000000     1.120000000
C     1.039000000    -1.038000000     0.067000000
H     1.123000000    -0.273000000     0.835000000
C     0.380000000    -0.670000000    -1.089000000
H     0.005000000     0.398000000    -1.151000000
C     0.265000000    -1.559000000    -2.147000000
H    -0.212000000    -1.225000000    -3.064000000
C     0.705000000    -2.834000000    -2.080000000
H     0.439000000    -3.568000000    -2.837000000
C     1.354000000    -3.213000000    -0.905000000
C     1.803000000    -4.652000000    -0.788000000
O     1.715000000    -5.504000000    -1.645000000
O     2.569000000    -4.885000000     0.139000000
