14
-83.95833
C     2.033000000    -0.880000000    -0.395000000
H     3.060000000    -0.529000000    -0.463000000
C     1.047000000     0.092000000    -0.097000000
H     1.285000000     1.147000000     0.012000000
C    -0.324000000    -0.262000000    -0.007000000
H    -1.139000000     0.406000000     0.322000000
C    -0.694000000    -1.587000000    -0.314000000
H    -1.766000000    -1.762000000    -0.355000000
C     0.269000000    -2.557000000    -0.533000000
H    -0.104000000    -3.557000000    -0.737000000
C     1.653000000    -2.228000000    -0.588000000
C     2.683000000    -3.297000000    -0.920000000
O     2.400000000    -4.497000000    -0.827000000
O     3.630000000    -3.059000000    -1.660000000
