14
-78.39377
C     2.010000000    -0.925000000    -0.320000000
H     3.081000000    -1.089000000    -0.414000000
C     1.520000000     0.280000000     0.241000000
H     2.276000000     1.045000000     0.398000000
C     0.136000000     0.526000000     0.366000000
H    -0.291000000     1.423000000     0.736000000
C    -0.740000000    -0.401000000    -0.081000000
H    -1.812000000    -0.228000000    -0.034000000
C    -0.310000000    -1.555000000    -0.590000000
H    -0.994000000    -2.282000000    -1.022000000
C     1.016000000    -1.880000000    -0.690000000
C     1.477000000    -3.135000000    -1.318000000
O     0.696000000    -3.916000000    -1.870000000
O     2.628000000    -3.425000000    -1.389000000
