14
-88.15595
C     1.052000000    -0.995000000    -0.603000000
H     2.068000000    -0.669000000    -0.811000000
C     0.092000000    -0.110000000    -0.081000000
H     0.391000000     0.924000000     0.070000000
C    -1.152000000    -0.434000000     0.276000000
H    -1.827000000     0.355000000     0.650000000
C    -1.543000000    -1.797000000     0.189000000
H    -2.581000000    -2.056000000     0.378000000
C    -0.613000000    -2.750000000    -0.182000000
H    -0.915000000    -3.794000000    -0.141000000
C     0.702000000    -2.413000000    -0.613000000
C     1.745000000    -3.420000000    -0.964000000
O     1.565000000    -4.621000000    -0.708000000
O     2.714000000    -3.071000000    -1.653000000
