14
-82.13899
C     1.692000000    -1.223000000    -0.831000000
H     2.638000000    -1.587000000    -1.225000000
C     1.573000000     0.163000000    -0.884000000
H     2.263000000     0.798000000    -1.434000000
C     0.506000000     0.771000000    -0.261000000
H     0.423000000     1.893000000    -0.218000000
C    -0.535000000    -0.048000000     0.167000000
H    -1.442000000     0.437000000     0.518000000
C    -0.406000000    -1.461000000     0.282000000
H    -1.239000000    -2.027000000     0.690000000
C     0.752000000    -2.090000000    -0.208000000
C     1.052000000    -3.575000000    -0.202000000
O     0.134000000    -4.362000000    -0.419000000
O     2.164000000    -3.980000000    -0.299000000
