14
-88.04906
C     1.798000000    -1.790000000    -0.344000000
H     2.801000000    -2.183000000    -0.488000000
C     1.525000000    -0.397000000    -0.427000000
H     2.388000000     0.260000000    -0.504000000
C     0.260000000     0.071000000    -0.273000000
H     0.184000000     1.210000000    -0.337000000
C    -0.807000000    -0.718000000     0.063000000
H    -1.764000000    -0.247000000     0.271000000
C    -0.542000000    -2.072000000     0.257000000
H    -1.349000000    -2.715000000     0.600000000
C     0.716000000    -2.594000000     0.043000000
C     0.835000000    -4.047000000     0.360000000
O    -0.108000000    -4.764000000     0.745000000
O     1.933000000    -4.540000000     0.155000000
