14
-87.18301
C     2.306000000    -1.603000000     0.361000000
H     3.363000000    -1.613000000     0.615000000
C     1.662000000    -0.399000000     0.151000000
H     2.250000000     0.506000000     0.280000000
C     0.297000000    -0.361000000    -0.062000000
H    -0.251000000     0.588000000    -0.093000000
C    -0.406000000    -1.516000000     0.027000000
H    -1.473000000    -1.328000000    -0.068000000
C     0.182000000    -2.733000000     0.239000000
H    -0.391000000    -3.655000000     0.295000000
C     1.598000000    -2.813000000     0.397000000
C     2.210000000    -4.201000000     0.562000000
O     1.510000000    -5.212000000     0.591000000
O     3.412000000    -4.305000000     0.377000000
