14
-94.31054
C     1.941000000    -1.668000000    -0.837000000
H     2.907000000    -2.101000000    -1.083000000
C     1.826000000    -0.313000000    -0.422000000
H     2.727000000     0.288000000    -0.330000000
C     0.618000000     0.273000000    -0.117000000
H     0.652000000     1.343000000     0.191000000
C    -0.572000000    -0.440000000    -0.337000000
H    -1.520000000    -0.011000000    -0.022000000
C    -0.463000000    -1.800000000    -0.717000000
H    -1.405000000    -2.336000000    -0.804000000
C     0.776000000    -2.418000000    -0.967000000
C     0.816000000    -3.893000000    -1.291000000
O    -0.211000000    -4.554000000    -1.319000000
O     1.980000000    -4.411000000    -1.399000000
