14
-88.83586
C     2.047000000    -0.651000000    -0.077000000
H     3.122000000    -0.693000000    -0.233000000
C     1.352000000     0.505000000    -0.117000000
H     1.913000000     1.417000000    -0.305000000
C    -0.029000000     0.559000000     0.037000000
H    -0.630000000     1.441000000     0.050000000
C    -0.632000000    -0.654000000     0.410000000
H    -1.707000000    -0.667000000     0.574000000
C     0.042000000    -1.905000000     0.425000000
H    -0.469000000    -2.859000000     0.525000000
C     1.413000000    -1.895000000     0.058000000
C     2.067000000    -3.256000000    -0.032000000
O     1.441000000    -4.297000000     0.221000000
O     3.233000000    -3.316000000    -0.358000000
