14
-84.23307
C     3.041000000    -1.341000000    -0.797000000
H     3.853000000    -0.830000000    -1.308000000
C     1.729000000    -0.851000000    -0.845000000
H     1.461000000     0.048000000    -1.394000000
C     0.659000000    -1.534000000    -0.209000000
H    -0.257000000    -0.930000000    -0.251000000
C     0.882000000    -2.730000000     0.467000000
H     0.077000000    -3.316000000     0.902000000
C     2.193000000    -3.252000000     0.439000000
H     2.397000000    -4.181000000     0.966000000
C     3.287000000    -2.597000000    -0.189000000
C     4.659000000    -3.222000000    -0.410000000
O     4.864000000    -4.308000000     0.059000000
O     5.617000000    -2.598000000    -0.815000000
