14
-85.24119
C     3.299000000    -1.836000000    -1.058000000
H     4.071000000    -1.999000000    -1.806000000
C     2.409000000    -0.830000000    -1.254000000
H     2.542000000    -0.261000000    -2.170000000
C     1.398000000    -0.622000000    -0.344000000
H     0.719000000     0.162000000    -0.663000000
C     1.354000000    -1.371000000     0.841000000
H     0.611000000    -1.135000000     1.599000000
C     2.353000000    -2.348000000     1.056000000
H     2.310000000    -2.975000000     1.943000000
C     3.286000000    -2.626000000     0.124000000
C     4.266000000    -3.783000000     0.372000000
O     4.087000000    -4.689000000     1.118000000
O     5.267000000    -3.813000000    -0.364000000
