14
-83.21456
C     2.177000000    -0.493000000    -1.307000000
H     3.117000000    -0.408000000    -1.848000000
C     1.526000000     0.689000000    -1.060000000
H     2.030000000     1.556000000    -1.480000000
C     0.350000000     0.734000000    -0.358000000
H    -0.237000000     1.620000000    -0.032000000
C    -0.235000000    -0.470000000     0.140000000
H    -1.199000000    -0.353000000     0.628000000
C     0.333000000    -1.738000000    -0.227000000
H    -0.057000000    -2.680000000     0.150000000
C     1.544000000    -1.758000000    -0.975000000
C     2.288000000    -3.030000000    -1.327000000
O     1.887000000    -4.138000000    -0.992000000
O     3.237000000    -2.971000000    -2.076000000
