14
-84.60173
C     2.365000000    -0.573000000    -1.240000000
H     3.270000000    -0.578000000    -1.842000000
C     1.595000000     0.592000000    -0.984000000
H     1.935000000     1.575000000    -1.300000000
C     0.486000000     0.459000000    -0.194000000
H    -0.187000000     1.337000000     0.080000000
C     0.085000000    -0.809000000     0.303000000
H    -0.741000000    -0.845000000     1.007000000
C     0.837000000    -1.969000000     0.009000000
H     0.440000000    -2.920000000     0.357000000
C     1.973000000    -1.855000000    -0.824000000
C     2.816000000    -3.084000000    -1.143000000
O     2.440000000    -4.155000000    -0.733000000
O     3.563000000    -3.008000000    -2.070000000
