14
-88.08899
C     2.825000000    -0.915000000    -0.829000000
H     3.805000000    -0.803000000    -1.286000000
C     1.978000000     0.195000000    -0.882000000
H     2.367000000     1.075000000    -1.389000000
C     0.742000000     0.212000000    -0.240000000
H     0.145000000     1.120000000    -0.316000000
C     0.278000000    -0.986000000     0.294000000
H    -0.799000000    -1.031000000     0.433000000
C     1.086000000    -2.055000000     0.421000000
H     0.687000000    -2.963000000     0.867000000
C     2.417000000    -2.044000000    -0.118000000
C     3.251000000    -3.329000000     0.101000000
O     2.904000000    -4.286000000     0.759000000
O     4.387000000    -3.340000000    -0.445000000
