14
-90.07751
C     2.006000000    -0.297000000    -1.659000000
H     2.801000000     0.078000000    -2.299000000
C     1.287000000     0.543000000    -0.821000000
H     1.537000000     1.600000000    -0.787000000
C     0.215000000     0.040000000    -0.007000000
H    -0.148000000     0.615000000     0.856000000
C    -0.191000000    -1.278000000    -0.189000000
H    -1.045000000    -1.575000000     0.415000000
C     0.460000000    -2.108000000    -1.044000000
H     0.107000000    -3.129000000    -1.165000000
C     1.550000000    -1.619000000    -1.763000000
C     2.394000000    -2.491000000    -2.679000000
O     2.174000000    -3.704000000    -2.679000000
O     3.442000000    -2.039000000    -3.195000000
