14
-84.25746
C     1.749000000    -0.559000000    -1.749000000
H     2.304000000    -0.177000000    -2.602000000
C     0.816000000     0.277000000    -1.189000000
H     0.817000000     1.307000000    -1.535000000
C    -0.062000000    -0.075000000    -0.210000000
H    -0.769000000     0.693000000     0.178000000
C     0.070000000    -1.339000000     0.266000000
H    -0.558000000    -1.580000000     1.120000000
C     0.971000000    -2.261000000    -0.229000000
H     1.102000000    -3.285000000     0.110000000
C     1.785000000    -1.893000000    -1.257000000
C     2.758000000    -2.827000000    -1.961000000
O     2.609000000    -4.050000000    -1.824000000
O     3.491000000    -2.431000000    -2.839000000
