14
-81.63877
C     2.351000000    -0.650000000    -1.282000000
H     3.183000000    -0.536000000    -1.972000000
C     1.029000000    -0.207000000    -1.634000000
H     0.799000000     0.150000000    -2.635000000
C    -0.026000000    -0.333000000    -0.690000000
H    -0.940000000     0.112000000    -0.928000000
C     0.135000000    -1.125000000     0.453000000
H    -0.679000000    -1.310000000     1.149000000
C     1.344000000    -1.746000000     0.731000000
H     1.458000000    -2.296000000     1.662000000
C     2.452000000    -1.486000000    -0.103000000
C     3.752000000    -2.249000000     0.154000000
O     3.691000000    -3.341000000     0.665000000
O     4.731000000    -1.984000000    -0.548000000
