14
-82.23644
C     2.578000000     1.065000000    -1.601000000
H     3.292000000     1.804000000    -1.955000000
C     1.299000000     1.482000000    -1.125000000
H     0.936000000     2.485000000    -0.917000000
C     0.422000000     0.548000000    -0.663000000
H    -0.578000000     0.849000000    -0.233000000
C     0.681000000    -0.804000000    -0.895000000
H    -0.052000000    -1.558000000    -0.620000000
C     1.998000000    -1.209000000    -1.315000000
H     2.107000000    -2.279000000    -1.470000000
C     3.017000000    -0.280000000    -1.644000000
C     4.319000000    -0.738000000    -2.184000000
O     4.421000000    -1.865000000    -2.603000000
O     5.245000000     0.060000000    -2.406000000
