14
-88.13800
C     3.022000000     0.207000000    -1.397000000
H     3.478000000     1.111000000    -1.792000000
C     1.873000000     0.382000000    -0.631000000
H     1.632000000     1.401000000    -0.337000000
C     1.106000000    -0.699000000    -0.143000000
H     0.289000000    -0.575000000     0.463000000
C     1.505000000    -1.986000000    -0.448000000
H     1.044000000    -2.851000000     0.023000000
C     2.664000000    -2.146000000    -1.196000000
H     3.081000000    -3.139000000    -1.349000000
C     3.432000000    -1.100000000    -1.783000000
C     4.638000000    -1.279000000    -2.643000000
O     4.958000000    -2.378000000    -3.001000000
O     5.336000000    -0.289000000    -2.861000000
