14
-81.24895
C     0.644000000     0.849000000    -2.140000000
H     1.108000000     1.759000000    -2.512000000
C     0.317000000     0.768000000    -0.814000000
H     0.567000000     1.589000000    -0.146000000
C    -0.169000000    -0.463000000    -0.318000000
H    -0.464000000    -0.522000000     0.776000000
C    -0.310000000    -1.511000000    -1.197000000
H    -0.818000000    -2.413000000    -0.867000000
C    -0.003000000    -1.433000000    -2.513000000
H    -0.107000000    -2.395000000    -3.007000000
C     0.560000000    -0.212000000    -3.014000000
C     1.077000000    -0.153000000    -4.461000000
O     0.753000000    -1.068000000    -5.147000000
O     1.900000000     0.651000000    -4.873000000
