14
-82.73394
C     1.771000000     0.344000000    -1.314000000
H     2.377000000     1.207000000    -1.575000000
C     0.543000000     0.619000000    -0.625000000
H     0.204000000     1.642000000    -0.476000000
C    -0.182000000    -0.376000000    -0.063000000
H    -1.071000000    -0.164000000     0.516000000
C     0.250000000    -1.659000000    -0.011000000
H    -0.219000000    -2.411000000     0.619000000
C     1.411000000    -1.960000000    -0.734000000
H     1.643000000    -3.021000000    -0.724000000
C     2.102000000    -1.003000000    -1.462000000
C     3.319000000    -1.363000000    -2.242000000
O     3.501000000    -2.541000000    -2.446000000
O     3.959000000    -0.505000000    -2.930000000
