14
-88.40382
C     1.058000000     0.588000000    -1.254000000
H     1.437000000     1.510000000    -1.686000000
C     0.166000000     0.857000000    -0.267000000
H    -0.118000000     1.860000000     0.041000000
C    -0.313000000    -0.193000000     0.500000000
H    -1.105000000    -0.001000000     1.251000000
C     0.022000000    -1.501000000     0.216000000
H    -0.311000000    -2.271000000     0.906000000
C     0.950000000    -1.762000000    -0.804000000
H     1.365000000    -2.739000000    -1.037000000
C     1.442000000    -0.692000000    -1.565000000
C     2.414000000    -0.914000000    -2.718000000
O     2.883000000    -2.004000000    -2.985000000
O     2.828000000     0.089000000    -3.301000000
