14
-78.71596
C    -1.091000000    -0.112000000    -2.085000000
H    -1.824000000    -0.106000000    -2.888000000
C    -1.415000000    -0.782000000    -0.918000000
H    -2.345000000    -1.341000000    -0.845000000
C    -0.619000000    -0.674000000     0.181000000
H    -0.804000000    -1.135000000     1.089000000
C     0.545000000     0.038000000     0.106000000
H     1.215000000     0.122000000     0.957000000
C     0.910000000     0.559000000    -1.138000000
H     1.817000000     1.158000000    -1.180000000
C     0.079000000     0.544000000    -2.255000000
C     0.421000000     1.335000000    -3.559000000
O     1.324000000     2.075000000    -3.606000000
O    -0.221000000     1.172000000    -4.581000000
