14
-84.18511
C    -1.129000000     0.402000000    -1.810000000
H    -1.963000000     0.545000000    -2.492000000
C    -1.393000000    -0.422000000    -0.679000000
H    -2.353000000    -0.886000000    -0.470000000
C    -0.468000000    -0.438000000     0.374000000
H    -0.709000000    -0.951000000     1.265000000
C     0.774000000     0.221000000     0.191000000
H     1.586000000     0.014000000     0.883000000
C     1.055000000     1.032000000    -0.972000000
H     2.025000000     1.505000000    -1.105000000
C     0.064000000     1.070000000    -2.010000000
C     0.177000000     2.101000000    -3.105000000
O     1.081000000     2.936000000    -3.080000000
O    -0.632000000     2.244000000    -4.042000000
