14
-87.78529
C    -1.428000000     0.529000000    -1.388000000
H    -2.332000000     0.337000000    -1.959000000
C    -1.094000000    -0.245000000    -0.291000000
H    -1.801000000    -0.963000000     0.117000000
C     0.054000000     0.013000000     0.421000000
H     0.313000000    -0.501000000     1.331000000
C     0.910000000     1.067000000     0.074000000
H     1.825000000     1.292000000     0.617000000
C     0.595000000     1.811000000    -1.034000000
H     1.200000000     2.671000000    -1.312000000
C    -0.534000000     1.555000000    -1.851000000
C    -0.921000000     2.304000000    -3.096000000
O    -0.206000000     3.174000000    -3.613000000
O    -1.797000000     1.809000000    -3.800000000
