14
-85.25554
C    -1.135000000     0.836000000    -2.181000000
H    -2.038000000     0.523000000    -2.698000000
C    -0.909000000     0.214000000    -0.910000000
H    -1.761000000    -0.392000000    -0.614000000
C     0.240000000     0.552000000    -0.152000000
H     0.394000000     0.013000000     0.811000000
C     1.132000000     1.497000000    -0.691000000
H     2.040000000     1.748000000    -0.148000000
C     0.902000000     2.034000000    -1.942000000
H     1.726000000     2.636000000    -2.316000000
C    -0.238000000     1.726000000    -2.656000000
C    -0.610000000     2.469000000    -3.903000000
O     0.134000000     3.325000000    -4.360000000
O    -1.704000000     2.324000000    -4.398000000
