14
-80.05677
C    -2.076000000    -0.623000000     0.202000000
H    -2.488000000    -1.626000000     0.278000000
C    -0.710000000    -0.532000000     0.327000000
H    -0.009000000    -1.320000000     0.589000000
C    -0.145000000     0.702000000     0.343000000
H     0.867000000     0.904000000     0.515000000
C    -0.979000000     1.873000000     0.119000000
H    -0.597000000     2.891000000     0.134000000
C    -2.380000000     1.752000000    -0.109000000
H    -3.021000000     2.626000000    -0.196000000
C    -2.971000000     0.486000000     0.039000000
C    -4.381000000     0.239000000    -0.167000000
O    -5.094000000     1.195000000    -0.322000000
O    -4.880000000    -0.886000000    -0.262000000
