14
-90.46872
C    -1.332000000     0.068000000    -1.840000000
H    -2.145000000    -0.341000000    -2.436000000
C    -0.967000000    -0.377000000    -0.550000000
H    -1.629000000    -1.071000000    -0.039000000
C     0.175000000     0.102000000     0.069000000
H     0.340000000    -0.235000000     1.085000000
C     0.950000000     1.034000000    -0.635000000
H     1.802000000     1.572000000    -0.228000000
C     0.539000000     1.556000000    -1.857000000
H     1.024000000     2.435000000    -2.272000000
C    -0.608000000     1.100000000    -2.439000000
C    -0.932000000     1.468000000    -3.888000000
O    -0.193000000     2.238000000    -4.468000000
O    -1.963000000     1.011000000    -4.444000000
