14
-80.87564
C    -1.280000000     0.769000000    -2.005000000
H    -2.243000000     0.322000000    -2.238000000
C    -0.699000000     0.361000000    -0.845000000
H    -1.213000000    -0.294000000    -0.146000000
C     0.556000000     0.840000000    -0.438000000
H     1.058000000     0.295000000     0.402000000
C     1.207000000     1.760000000    -1.269000000
H     2.152000000     2.148000000    -0.900000000
C     0.581000000     2.331000000    -2.378000000
H     1.141000000     3.099000000    -2.904000000
C    -0.666000000     1.798000000    -2.805000000
C    -1.271000000     2.369000000    -3.973000000
O    -0.997000000     3.492000000    -4.441000000
O    -2.102000000     1.723000000    -4.543000000
