14
-88.22905
C    -1.792000000     0.063000000    -2.164000000
H    -2.614000000    -0.557000000    -2.513000000
C    -1.048000000    -0.197000000    -1.056000000
H    -1.138000000    -1.007000000    -0.337000000
C     0.006000000     0.735000000    -0.685000000
H     0.577000000     0.510000000     0.230000000
C     0.240000000     1.869000000    -1.465000000
H     1.070000000     2.486000000    -1.129000000
C    -0.438000000     2.102000000    -2.648000000
H    -0.180000000     2.974000000    -3.244000000
C    -1.518000000     1.214000000    -2.990000000
C    -2.300000000     1.530000000    -4.235000000
O    -2.255000000     2.609000000    -4.875000000
O    -2.996000000     0.615000000    -4.631000000
