14
-79.66603
C    -1.565000000     0.053000000    -2.056000000
H    -2.318000000    -0.400000000    -2.696000000
C    -1.042000000    -0.669000000    -0.994000000
H    -1.227000000    -1.740000000    -0.987000000
C    -0.128000000    -0.167000000    -0.122000000
H     0.424000000    -0.794000000     0.538000000
C     0.287000000     1.225000000    -0.231000000
H     1.008000000     1.647000000     0.463000000
C    -0.387000000     1.979000000    -1.248000000
H    -0.265000000     3.059000000    -1.278000000
C    -1.208000000     1.358000000    -2.191000000
C    -1.799000000     2.087000000    -3.321000000
O    -1.851000000     3.303000000    -3.375000000
O    -1.956000000     1.459000000    -4.339000000
