14
-87.96223
C    -2.247000000     0.058000000    -1.761000000
H    -3.139000000    -0.413000000    -2.166000000
C    -1.554000000    -0.589000000    -0.744000000
H    -1.934000000    -1.529000000    -0.352000000
C    -0.429000000     0.051000000    -0.182000000
H     0.084000000    -0.313000000     0.653000000
C     0.061000000     1.211000000    -0.757000000
H     1.014000000     1.561000000    -0.368000000
C    -0.660000000     1.910000000    -1.751000000
H    -0.176000000     2.829000000    -2.071000000
C    -1.860000000     1.313000000    -2.256000000
C    -2.699000000     2.005000000    -3.333000000
O    -2.253000000     2.957000000    -3.930000000
O    -3.766000000     1.545000000    -3.670000000
