14
-86.20597
C    -1.946000000     0.618000000    -1.641000000
H    -2.921000000     0.208000000    -1.888000000
C    -1.262000000    -0.043000000    -0.609000000
H    -1.667000000    -0.956000000    -0.180000000
C    -0.013000000     0.340000000    -0.187000000
H     0.436000000    -0.187000000     0.652000000
C     0.534000000     1.418000000    -0.787000000
H     1.575000000     1.634000000    -0.561000000
C    -0.046000000     2.067000000    -1.893000000
H     0.441000000     2.921000000    -2.357000000
C    -1.320000000     1.658000000    -2.349000000
C    -2.056000000     2.220000000    -3.516000000
O    -1.524000000     3.198000000    -4.033000000
O    -3.180000000     1.900000000    -3.881000000
