14
-87.22839
C    -1.868000000     0.296000000    -1.044000000
H    -2.921000000     0.027000000    -1.083000000
C    -1.073000000    -0.214000000     0.010000000
H    -1.533000000    -0.983000000     0.625000000
C     0.238000000     0.225000000     0.162000000
H     0.861000000    -0.268000000     0.886000000
C     0.811000000     1.085000000    -0.716000000
H     1.888000000     1.227000000    -0.679000000
C     0.000000000     1.668000000    -1.723000000
H     0.384000000     2.441000000    -2.384000000
C    -1.368000000     1.321000000    -1.865000000
C    -2.158000000     1.720000000    -3.035000000
O    -1.491000000     1.871000000    -4.057000000
O    -3.378000000     1.701000000    -3.068000000
