14
-82.57682
C    -2.000000000     0.418000000    -1.395000000
H    -2.985000000     0.166000000    -1.781000000
C    -1.560000000    -0.461000000    -0.454000000
H    -2.087000000    -1.386000000    -0.233000000
C    -0.272000000    -0.256000000     0.123000000
H    -0.013000000    -0.877000000     0.960000000
C     0.569000000     0.756000000    -0.335000000
H     1.567000000     0.921000000     0.065000000
C     0.053000000     1.564000000    -1.366000000
H     0.679000000     2.312000000    -1.845000000
C    -1.231000000     1.517000000    -1.822000000
C    -1.677000000     2.401000000    -2.923000000
O    -0.898000000     2.875000000    -3.712000000
O    -2.842000000     2.622000000    -3.060000000
