14
-85.78583
C    -2.038000000    -0.284000000     1.639000000
H    -2.415000000    -0.749000000     2.546000000
C    -0.738000000    -0.659000000     1.140000000
H    -0.104000000    -1.305000000     1.742000000
C    -0.200000000    -0.021000000     0.005000000
H     0.866000000    -0.290000000    -0.318000000
C    -1.008000000     0.843000000    -0.743000000
H    -0.677000000     1.414000000    -1.608000000
C    -2.260000000     1.263000000    -0.197000000
H    -2.764000000     2.064000000    -0.731000000
C    -2.781000000     0.697000000     0.976000000
C    -4.216000000     1.009000000     1.501000000
O    -5.058000000     1.485000000     0.777000000
O    -4.417000000     0.884000000     2.670000000
