14
-81.31921
C    -2.077000000     1.353000000    -1.196000000
H    -2.797000000     2.157000000    -1.070000000
C    -1.124000000     1.142000000    -0.225000000
H    -0.955000000     1.823000000     0.605000000
C    -0.224000000     0.086000000    -0.297000000
H     0.546000000     0.004000000     0.352000000
C    -0.337000000    -0.824000000    -1.375000000
H     0.333000000    -1.680000000    -1.371000000
C    -1.385000000    -0.595000000    -2.320000000
H    -1.527000000    -1.304000000    -3.132000000
C    -2.265000000     0.528000000    -2.218000000
C    -3.326000000     0.626000000    -3.271000000
O    -3.395000000    -0.078000000    -4.220000000
O    -4.218000000     1.445000000    -3.069000000
