14
-88.21873
C    -1.530000000     0.468000000    -0.718000000
H    -2.281000000     1.252000000    -0.664000000
C    -0.574000000     0.392000000     0.254000000
H    -0.656000000     1.104000000     1.071000000
C     0.391000000    -0.605000000     0.241000000
H     1.198000000    -0.584000000     0.910000000
C     0.498000000    -1.446000000    -0.885000000
H     1.346000000    -2.121000000    -0.955000000
C    -0.435000000    -1.389000000    -1.888000000
H    -0.330000000    -2.091000000    -2.711000000
C    -1.498000000    -0.402000000    -1.820000000
C    -2.472000000    -0.322000000    -2.986000000
O    -2.370000000    -1.054000000    -3.939000000
O    -3.130000000     0.707000000    -2.994000000
