14
-82.97705
C    -1.978000000    -0.038000000     2.344000000
H    -2.385000000    -0.385000000     3.290000000
C    -1.223000000    -0.893000000     1.544000000
H    -1.190000000    -1.977000000     1.618000000
C    -0.566000000    -0.445000000     0.390000000
H     0.040000000    -1.125000000    -0.198000000
C    -0.723000000     0.870000000    -0.033000000
H    -0.357000000     1.283000000    -0.970000000
C    -1.526000000     1.711000000     0.800000000
H    -1.677000000     2.663000000     0.298000000
C    -2.247000000     1.223000000     1.887000000
C    -3.084000000     2.178000000     2.800000000
O    -3.308000000     3.370000000     2.366000000
O    -3.483000000     1.921000000     3.918000000
