14
-82.77966
C    -1.866000000     0.766000000    -0.489000000
H    -2.438000000     1.661000000    -0.256000000
C    -0.627000000     0.513000000     0.002000000
H    -0.160000000     1.136000000     0.760000000
C    -0.002000000    -0.742000000    -0.277000000
H     0.889000000    -1.013000000     0.285000000
C    -0.569000000    -1.669000000    -1.089000000
H    -0.136000000    -2.651000000    -1.262000000
C    -1.821000000    -1.322000000    -1.631000000
H    -2.247000000    -2.005000000    -2.362000000
C    -2.509000000    -0.170000000    -1.304000000
C    -3.728000000     0.281000000    -2.018000000
O    -4.220000000    -0.391000000    -2.883000000
O    -4.098000000     1.470000000    -1.978000000
