14
-89.29862
C    -1.799000000     1.281000000    -1.949000000
H    -1.424000000     1.849000000    -2.797000000
C    -0.890000000     0.831000000    -1.038000000
H     0.183000000     0.934000000    -1.178000000
C    -1.301000000     0.115000000     0.109000000
H    -0.519000000    -0.373000000     0.688000000
C    -2.650000000    -0.066000000     0.351000000
H    -3.093000000    -0.587000000     1.196000000
C    -3.580000000     0.453000000    -0.566000000
H    -4.638000000     0.292000000    -0.372000000
C    -3.148000000     1.109000000    -1.724000000
C    -4.254000000     1.621000000    -2.624000000
O    -5.301000000     1.969000000    -2.055000000
O    -3.992000000     1.972000000    -3.742000000
