14
-90.55004
C    -2.647000000    -0.391000000    -3.078000000
H    -2.976000000    -0.944000000    -3.954000000
C    -1.600000000    -0.918000000    -2.340000000
H    -1.208000000    -1.895000000    -2.609000000
C    -1.015000000    -0.343000000    -1.208000000
H    -0.246000000    -0.742000000    -0.619000000
C    -1.561000000     0.925000000    -0.817000000
H    -1.220000000     1.454000000     0.069000000
C    -2.685000000     1.450000000    -1.528000000
H    -3.199000000     2.322000000    -1.132000000
C    -3.261000000     0.760000000    -2.668000000
C    -4.602000000     1.263000000    -3.216000000
O    -5.090000000     2.246000000    -2.659000000
O    -5.121000000     0.725000000    -4.183000000
