14
-84.48997
C    -1.589000000     0.939000000    -2.766000000
H    -1.366000000     0.957000000    -3.829000000
C    -0.579000000     0.662000000    -1.841000000
H     0.384000000     0.335000000    -2.226000000
C    -0.889000000     0.517000000    -0.442000000
H    -0.144000000     0.199000000     0.319000000
C    -2.212000000     0.686000000    -0.070000000
H    -2.439000000     0.624000000     0.991000000
C    -3.151000000     1.212000000    -0.995000000
H    -4.168000000     1.212000000    -0.612000000
C    -2.881000000     1.370000000    -2.346000000
C    -3.947000000     1.803000000    -3.325000000
O    -5.088000000     1.872000000    -2.934000000
O    -3.717000000     1.906000000    -4.510000000
