14
-85.42718
C    -1.590000000     1.114000000    -2.170000000
H    -1.541000000     1.589000000    -3.147000000
C    -0.464000000     0.447000000    -1.646000000
H     0.407000000     0.473000000    -2.297000000
C    -0.469000000    -0.263000000    -0.445000000
H     0.423000000    -0.746000000    -0.073000000
C    -1.696000000    -0.289000000     0.311000000
H    -1.755000000    -0.910000000     1.201000000
C    -2.808000000     0.425000000    -0.162000000
H    -3.625000000     0.464000000     0.555000000
C    -2.802000000     1.125000000    -1.458000000
C    -4.093000000     1.682000000    -2.019000000
O    -5.196000000     1.411000000    -1.528000000
O    -4.095000000     2.639000000    -2.881000000
