14
-86.10197
C    -1.275000000    -0.530000000     1.280000000
H    -1.597000000    -1.501000000     1.646000000
C    -0.284000000    -0.374000000     0.277000000
H     0.140000000    -1.223000000    -0.252000000
C     0.106000000     0.896000000    -0.155000000
H     0.593000000     0.878000000    -1.125000000
C    -0.426000000     2.022000000     0.486000000
H    -0.204000000     3.029000000     0.143000000
C    -1.295000000     1.871000000     1.552000000
H    -1.614000000     2.808000000     2.001000000
C    -1.741000000     0.631000000     1.991000000
C    -2.809000000     0.567000000     3.013000000
O    -3.019000000     1.601000000     3.635000000
O    -3.430000000    -0.440000000     3.348000000
