14
-80.43107
C    -0.990000000     0.682000000    -2.302000000
H    -0.884000000     0.966000000    -3.346000000
C     0.210000000     0.493000000    -1.714000000
H     1.127000000     0.682000000    -2.266000000
C     0.328000000     0.037000000    -0.391000000
H     1.346000000    -0.061000000     0.127000000
C    -0.841000000    -0.188000000     0.264000000
H    -0.778000000    -0.563000000     1.282000000
C    -2.121000000     0.029000000    -0.290000000
H    -3.028000000    -0.198000000     0.265000000
C    -2.202000000     0.493000000    -1.634000000
C    -3.577000000     0.604000000    -2.294000000
O    -4.651000000     0.574000000    -1.783000000
O    -3.567000000     0.654000000    -3.519000000
