14
-86.20526
C    -0.902000000     1.301000000    -1.876000000
H    -0.936000000     2.010000000    -2.699000000
C     0.313000000     0.643000000    -1.518000000
H     1.175000000     0.722000000    -2.176000000
C     0.424000000    -0.115000000    -0.363000000
H     1.380000000    -0.604000000    -0.155000000
C    -0.518000000    -0.112000000     0.588000000
H    -0.333000000    -0.504000000     1.585000000
C    -1.756000000     0.534000000     0.270000000
H    -2.442000000     0.718000000     1.093000000
C    -1.970000000     1.241000000    -0.957000000
C    -3.368000000     1.775000000    -1.299000000
O    -4.284000000     1.678000000    -0.502000000
O    -3.560000000     2.260000000    -2.410000000
