14
-84.63369
C    -0.993000000     1.620000000    -1.820000000
H    -0.879000000     2.220000000    -2.719000000
C     0.179000000     1.098000000    -1.259000000
H     1.180000000     1.396000000    -1.560000000
C     0.002000000     0.214000000    -0.154000000
H     0.885000000    -0.105000000     0.328000000
C    -1.273000000    -0.261000000     0.134000000
H    -1.477000000    -1.008000000     0.897000000
C    -2.415000000     0.295000000    -0.391000000
H    -3.432000000     0.026000000    -0.119000000
C    -2.286000000     1.223000000    -1.414000000
C    -3.514000000     1.820000000    -2.004000000
O    -4.625000000     1.296000000    -1.871000000
O    -3.389000000     2.817000000    -2.616000000
