14
-78.63313
C    -0.672000000     1.484000000    -1.384000000
H    -0.336000000     2.283000000    -2.041000000
C     0.238000000     0.765000000    -0.633000000
H     1.314000000     0.903000000    -0.705000000
C    -0.245000000    -0.318000000     0.159000000
H     0.493000000    -0.801000000     0.837000000
C    -1.633000000    -0.494000000     0.365000000
H    -2.100000000    -1.169000000     1.077000000
C    -2.508000000     0.271000000    -0.401000000
H    -3.575000000     0.184000000    -0.208000000
C    -2.041000000     1.287000000    -1.262000000
C    -3.054000000     2.096000000    -2.019000000
O    -4.253000000     1.897000000    -1.894000000
O    -2.829000000     2.854000000    -2.926000000
