14
-88.08212
C    -0.957000000     1.299000000    -1.677000000
H    -0.525000000     2.048000000    -2.336000000
C    -0.121000000     0.650000000    -0.750000000
H     0.926000000     0.937000000    -0.702000000
C    -0.602000000    -0.370000000     0.026000000
H     0.092000000    -0.891000000     0.649000000
C    -1.936000000    -0.722000000    -0.106000000
H    -2.316000000    -1.587000000     0.432000000
C    -2.849000000     0.081000000    -0.813000000
H    -3.886000000    -0.217000000    -0.943000000
C    -2.319000000     1.045000000    -1.730000000
C    -3.262000000     1.742000000    -2.669000000
O    -4.367000000     1.302000000    -2.776000000
O    -2.894000000     2.738000000    -3.248000000
