14
-86.83063
C    -0.635000000     1.711000000    -1.103000000
H    -0.382000000     2.702000000    -1.470000000
C     0.270000000     0.960000000    -0.359000000
H     1.306000000     1.275000000    -0.269000000
C    -0.209000000    -0.250000000     0.203000000
H     0.490000000    -0.875000000     0.855000000
C    -1.560000000    -0.660000000     0.090000000
H    -1.877000000    -1.520000000     0.674000000
C    -2.437000000     0.096000000    -0.698000000
H    -3.450000000    -0.284000000    -0.811000000
C    -1.996000000     1.338000000    -1.233000000
C    -2.878000000     2.117000000    -2.168000000
O    -4.080000000     1.940000000    -2.183000000
O    -2.421000000     2.997000000    -2.853000000
