14
-92.62593
C    -1.525000000     0.134000000     1.055000000
H    -2.104000000    -0.613000000     1.591000000
C    -0.424000000    -0.387000000     0.340000000
H    -0.095000000    -1.422000000     0.395000000
C     0.292000000     0.501000000    -0.470000000
H     1.114000000     0.149000000    -1.014000000
C    -0.068000000     1.869000000    -0.501000000
H     0.522000000     2.560000000    -1.098000000
C    -1.083000000     2.347000000     0.229000000
H    -1.370000000     3.395000000     0.253000000
C    -1.872000000     1.496000000     1.028000000
C    -3.028000000     1.929000000     1.862000000
O    -3.521000000     3.041000000     1.668000000
O    -3.346000000     1.182000000     2.778000000
