14
-92.23379
C    -1.294000000     0.575000000    -1.184000000
H    -1.788000000     1.542000000    -1.155000000
C    -0.090000000     0.345000000    -0.463000000
H     0.368000000     1.209000000     0.011000000
C     0.470000000    -0.923000000    -0.397000000
H     1.439000000    -1.139000000     0.169000000
C    -0.151000000    -2.007000000    -1.097000000
H     0.319000000    -2.987000000    -1.085000000
C    -1.324000000    -1.809000000    -1.812000000
H    -1.759000000    -2.639000000    -2.364000000
C    -1.902000000    -0.525000000    -1.800000000
C    -3.204000000    -0.296000000    -2.605000000
O    -3.859000000    -1.262000000    -3.116000000
O    -3.617000000     0.828000000    -2.694000000
