14
-87.66630
C    -2.113000000     0.429000000    -0.800000000
H    -3.103000000     0.872000000    -0.723000000
C    -1.134000000     0.799000000     0.107000000
H    -1.396000000     1.657000000     0.720000000
C     0.094000000     0.177000000     0.087000000
H     0.912000000     0.506000000     0.796000000
C     0.314000000    -0.816000000    -0.796000000
H     1.314000000    -1.237000000    -0.869000000
C    -0.652000000    -1.211000000    -1.694000000
H    -0.349000000    -1.957000000    -2.424000000
C    -1.866000000    -0.565000000    -1.763000000
C    -2.974000000    -1.000000000    -2.729000000
O    -2.664000000    -1.785000000    -3.658000000
O    -4.083000000    -0.590000000    -2.638000000
