14
-75.91774
C    -1.685000000     0.525000000    -0.668000000
H    -2.663000000     0.887000000    -0.361000000
C    -0.579000000     0.714000000     0.219000000
H    -0.690000000     1.228000000     1.170000000
C     0.615000000     0.095000000     0.020000000
H     1.438000000     0.263000000     0.780000000
C     0.762000000    -0.754000000    -1.054000000
H     1.671000000    -1.346000000    -1.134000000
C    -0.255000000    -0.955000000    -1.993000000
H    -0.113000000    -1.665000000    -2.804000000
C    -1.488000000    -0.366000000    -1.724000000
C    -2.590000000    -0.631000000    -2.690000000
O    -2.419000000    -1.192000000    -3.711000000
O    -3.723000000    -0.237000000    -2.524000000
