14
-90.85988
C    -1.812000000     0.804000000    -0.886000000
H    -2.699000000     1.430000000    -0.833000000
C    -0.807000000     0.993000000     0.101000000
H    -1.016000000     1.691000000     0.908000000
C     0.283000000     0.101000000     0.084000000
H     1.013000000     0.160000000     0.869000000
C     0.503000000    -0.698000000    -1.042000000
H     1.367000000    -1.354000000    -1.118000000
C    -0.438000000    -0.771000000    -2.047000000
H    -0.249000000    -1.382000000    -2.926000000
C    -1.571000000     0.010000000    -1.993000000
C    -2.625000000     0.015000000    -3.098000000
O    -2.464000000    -0.690000000    -4.102000000
O    -3.611000000     0.707000000    -3.019000000
