14
-88.89174
C    -1.871000000    -0.205000000    -0.315000000
H    -2.897000000     0.071000000    -0.084000000
C    -0.825000000     0.272000000     0.451000000
H    -0.978000000     0.904000000     1.323000000
C     0.468000000    -0.072000000     0.156000000
H     1.276000000     0.333000000     0.830000000
C     0.748000000    -0.822000000    -1.006000000
H     1.787000000    -1.020000000    -1.256000000
C    -0.315000000    -1.318000000    -1.782000000
H    -0.145000000    -1.971000000    -2.634000000
C    -1.643000000    -1.000000000    -1.442000000
C    -2.763000000    -1.526000000    -2.350000000
O    -2.527000000    -1.996000000    -3.435000000
O    -3.872000000    -1.166000000    -2.056000000
