14
-84.10932
C    -2.434000000    -0.023000000    -0.346000000
H    -3.318000000     0.396000000     0.129000000
C    -1.239000000     0.648000000    -0.057000000
H    -1.320000000     1.559000000     0.531000000
C    -0.006000000     0.197000000    -0.593000000
H     0.945000000     0.662000000    -0.343000000
C    -0.020000000    -0.922000000    -1.473000000
H     0.973000000    -1.273000000    -1.743000000
C    -1.185000000    -1.583000000    -1.759000000
H    -1.049000000    -2.340000000    -2.526000000
C    -2.415000000    -1.079000000    -1.231000000
C    -3.674000000    -1.619000000    -1.858000000
O    -3.730000000    -2.697000000    -2.415000000
O    -4.683000000    -0.958000000    -1.788000000
