14
-86.79343
C    -2.136000000    -0.255000000    -0.680000000
H    -3.105000000     0.104000000    -0.344000000
C    -0.885000000     0.014000000    -0.029000000
H    -0.850000000     0.463000000     0.961000000
C     0.308000000    -0.485000000    -0.603000000
H     1.307000000    -0.404000000    -0.104000000
C     0.152000000    -1.189000000    -1.780000000
H     1.080000000    -1.569000000    -2.199000000
C    -1.052000000    -1.439000000    -2.406000000
H    -1.110000000    -1.890000000    -3.393000000
C    -2.237000000    -0.866000000    -1.950000000
C    -3.587000000    -1.147000000    -2.535000000
O    -3.588000000    -1.593000000    -3.705000000
O    -4.594000000    -0.652000000    -2.021000000
