14
-86.46959
C    -2.290000000     0.172000000     2.029000000
H    -3.049000000    -0.048000000     2.775000000
C    -1.319000000    -0.779000000     1.751000000
H    -1.349000000    -1.764000000     2.211000000
C    -0.426000000    -0.512000000     0.686000000
H     0.368000000    -1.110000000     0.484000000
C    -0.477000000     0.709000000     0.067000000
H     0.371000000     1.013000000    -0.542000000
C    -1.425000000     1.661000000     0.409000000
H    -1.471000000     2.689000000     0.059000000
C    -2.358000000     1.409000000     1.416000000
C    -3.325000000     2.481000000     1.979000000
O    -3.279000000     3.613000000     1.605000000
O    -4.071000000     2.170000000     2.945000000
