14
-89.30723
C    -2.000000000     0.737000000    -0.112000000
H    -2.695000000     1.413000000     0.378000000
C    -0.690000000     0.583000000     0.305000000
H    -0.364000000     1.176000000     1.156000000
C     0.190000000    -0.264000000    -0.374000000
H     1.239000000    -0.308000000     0.052000000
C    -0.278000000    -1.007000000    -1.499000000
H     0.469000000    -1.598000000    -2.023000000
C    -1.588000000    -0.896000000    -1.873000000
H    -1.901000000    -1.285000000    -2.838000000
C    -2.499000000    -0.018000000    -1.201000000
C    -3.942000000     0.156000000    -1.693000000
O    -4.410000000    -0.617000000    -2.527000000
O    -4.664000000     1.002000000    -1.216000000
