14
-89.16058
C    -1.854000000     1.246000000     0.496000000
H    -2.555000000     1.956000000     0.927000000
C    -0.525000000     1.140000000     0.991000000
H    -0.176000000     1.857000000     1.730000000
C     0.309000000     0.122000000     0.483000000
H     1.382000000    -0.012000000     0.846000000
C    -0.123000000    -0.750000000    -0.483000000
H     0.485000000    -1.551000000    -0.895000000
C    -1.490000000    -0.630000000    -0.892000000
H    -1.926000000    -1.325000000    -1.606000000
C    -2.379000000     0.301000000    -0.405000000
C    -3.848000000     0.381000000    -0.836000000
O    -4.235000000    -0.292000000    -1.776000000
O    -4.454000000     1.355000000    -0.439000000
