14
-77.17069
C    -1.991000000     0.736000000     0.149000000
H    -2.808000000     1.452000000     0.176000000
C    -0.868000000     1.096000000     0.878000000
H    -0.837000000     1.945000000     1.556000000
C     0.248000000     0.215000000     0.845000000
H     1.131000000     0.470000000     1.270000000
C     0.286000000    -0.892000000    -0.050000000
H     1.189000000    -1.475000000    -0.210000000
C    -0.864000000    -1.129000000    -0.813000000
H    -1.025000000    -2.049000000    -1.369000000
C    -1.983000000    -0.347000000    -0.731000000
C    -3.280000000    -0.650000000    -1.477000000
O    -3.293000000    -1.399000000    -2.446000000
O    -4.232000000     0.109000000    -1.447000000
