14
-94.13702
C    -2.253000000     1.580000000     0.472000000
H    -2.904000000     2.418000000     0.708000000
C    -1.141000000     1.309000000     1.247000000
H    -0.816000000     1.960000000     2.054000000
C    -0.332000000     0.216000000     0.891000000
H     0.601000000     0.117000000     1.436000000
C    -0.582000000    -0.568000000    -0.175000000
H     0.098000000    -1.378000000    -0.425000000
C    -1.702000000    -0.302000000    -0.970000000
H    -1.897000000    -0.934000000    -1.832000000
C    -2.537000000     0.782000000    -0.639000000
C    -3.762000000     1.036000000    -1.521000000
O    -4.076000000     0.260000000    -2.407000000
O    -4.443000000     1.999000000    -1.189000000
