14
-85.05178
C    -1.679000000     2.133000000    -1.004000000
H    -2.270000000     3.037000000    -0.883000000
C    -0.751000000     1.864000000     0.071000000
H    -0.513000000     2.597000000     0.838000000
C    -0.049000000     0.706000000     0.030000000
H     0.735000000     0.436000000     0.791000000
C    -0.250000000    -0.155000000    -0.998000000
H     0.297000000    -1.094000000    -0.998000000
C    -1.186000000     0.041000000    -2.073000000
H    -1.222000000    -0.699000000    -2.868000000
C    -1.876000000     1.226000000    -2.075000000
C    -3.099000000     1.380000000    -3.007000000
O    -3.204000000     0.641000000    -3.981000000
O    -4.008000000     2.180000000    -2.789000000
