14
-90.16091
C    -1.295000000     1.646000000    -0.236000000
H    -2.012000000     2.440000000    -0.043000000
C    -0.350000000     1.186000000     0.674000000
H    -0.283000000     1.721000000     1.618000000
C     0.402000000     0.053000000     0.454000000
H     1.165000000    -0.174000000     1.178000000
C     0.183000000    -0.637000000    -0.744000000
H     0.847000000    -1.486000000    -0.883000000
C    -0.757000000    -0.173000000    -1.669000000
H    -0.902000000    -0.683000000    -2.618000000
C    -1.491000000     1.015000000    -1.418000000
C    -2.530000000     1.464000000    -2.440000000
O    -2.660000000     0.861000000    -3.514000000
O    -3.340000000     2.277000000    -2.075000000
