14
-85.59650
C    -2.011000000     0.152000000    -0.572000000
H    -3.090000000     0.164000000    -0.446000000
C    -1.199000000    -0.326000000     0.404000000
H    -1.678000000    -0.654000000     1.322000000
C     0.210000000    -0.354000000     0.291000000
H     0.894000000    -0.838000000     1.020000000
C     0.714000000     0.241000000    -0.840000000
H     1.783000000     0.347000000    -1.004000000
C    -0.127000000     0.617000000    -1.880000000
H     0.382000000     1.106000000    -2.707000000
C    -1.502000000     0.675000000    -1.767000000
C    -2.361000000     1.121000000    -2.944000000
O    -1.938000000     1.248000000    -4.048000000
O    -3.580000000     1.196000000    -2.747000000
