14
-90.69039
C    -2.062000000     0.069000000    -0.560000000
H    -3.146000000     0.004000000    -0.523000000
C    -1.305000000    -0.433000000     0.510000000
H    -1.886000000    -0.677000000     1.395000000
C     0.097000000    -0.296000000     0.500000000
H     0.670000000    -0.613000000     1.360000000
C     0.713000000     0.320000000    -0.600000000
H     1.798000000     0.369000000    -0.569000000
C    -0.020000000     0.790000000    -1.697000000
H     0.563000000     1.237000000    -2.498000000
C    -1.482000000     0.643000000    -1.715000000
C    -2.309000000     1.204000000    -2.883000000
O    -1.747000000     1.721000000    -3.872000000
O    -3.540000000     1.295000000    -2.743000000
