14
-84.07538
C    -2.330000000    -0.034000000    -0.411000000
H    -3.381000000    -0.212000000    -0.200000000
C    -1.382000000    -0.763000000     0.328000000
H    -1.765000000    -1.470000000     1.059000000
C    -0.036000000    -0.564000000     0.201000000
H     0.751000000    -1.130000000     0.821000000
C     0.360000000     0.435000000    -0.692000000
H     1.434000000     0.525000000    -0.831000000
C    -0.499000000     1.253000000    -1.371000000
H    -0.108000000     1.978000000    -2.080000000
C    -1.901000000     0.977000000    -1.292000000
C    -2.889000000     1.787000000    -2.054000000
O    -2.532000000     2.726000000    -2.718000000
O    -4.056000000     1.479000000    -2.120000000
