14
-86.46702
C    -2.301000000    -0.528000000    -1.141000000
H    -3.249000000    -1.060000000    -1.105000000
C    -1.374000000    -0.702000000    -0.138000000
H    -1.591000000    -1.387000000     0.677000000
C    -0.232000000     0.091000000    -0.164000000
H     0.520000000     0.016000000     0.666000000
C     0.004000000     1.061000000    -1.179000000
H     0.845000000     1.731000000    -1.022000000
C    -0.909000000     1.133000000    -2.192000000
H    -0.813000000     1.880000000    -2.976000000
C    -2.078000000     0.422000000    -2.176000000
C    -3.141000000     0.760000000    -3.168000000
O    -3.093000000     1.726000000    -3.923000000
O    -4.190000000     0.131000000    -3.186000000
