14
-80.31305
C    -1.955000000    -0.630000000    -0.296000000
H    -2.790000000    -1.024000000     0.277000000
C    -0.684000000    -0.571000000     0.358000000
H    -0.473000000    -1.052000000     1.310000000
C     0.347000000     0.021000000    -0.322000000
H     1.314000000     0.037000000     0.106000000
C     0.215000000     0.539000000    -1.545000000
H     1.030000000     1.017000000    -2.083000000
C    -1.075000000     0.615000000    -2.168000000
H    -1.159000000     0.990000000    -3.185000000
C    -2.192000000     0.039000000    -1.496000000
C    -3.608000000     0.018000000    -2.042000000
O    -3.996000000     0.817000000    -2.863000000
O    -4.487000000    -0.670000000    -1.547000000
