14
-87.11950
C    -1.186000000    -0.046000000     1.873000000
H    -1.787000000    -0.340000000     2.730000000
C    -0.519000000    -1.010000000     1.128000000
H    -0.396000000    -2.050000000     1.419000000
C     0.258000000    -0.618000000    -0.013000000
H     0.799000000    -1.349000000    -0.537000000
C     0.094000000     0.682000000    -0.465000000
H     0.634000000     1.016000000    -1.346000000
C    -0.539000000     1.635000000     0.315000000
H    -0.530000000     2.670000000    -0.016000000
C    -1.126000000     1.287000000     1.501000000
C    -1.816000000     2.373000000     2.361000000
O    -2.406000000     3.293000000     1.826000000
O    -1.910000000     2.242000000     3.551000000
