14
-88.22353
C    -2.740000000    -0.517000000    -1.443000000
H    -3.748000000    -0.841000000    -1.690000000
C    -1.720000000    -1.357000000    -1.107000000
H    -1.878000000    -2.430000000    -1.039000000
C    -0.428000000    -0.869000000    -0.980000000
H     0.436000000    -1.484000000    -0.816000000
C    -0.169000000     0.528000000    -0.954000000
H     0.811000000     0.939000000    -0.724000000
C    -1.236000000     1.407000000    -1.280000000
H    -1.100000000     2.483000000    -1.217000000
C    -2.586000000     0.893000000    -1.577000000
C    -3.742000000     1.766000000    -2.109000000
O    -3.616000000     2.971000000    -2.248000000
O    -4.808000000     1.197000000    -2.254000000
