14
-80.05033
C    -1.443000000     0.161000000    -1.478000000
H    -1.804000000    -0.564000000    -2.203000000
C    -0.337000000    -0.059000000    -0.715000000
H     0.093000000    -1.057000000    -0.703000000
C     0.230000000     0.803000000     0.207000000
H     1.023000000     0.541000000     0.836000000
C    -0.343000000     2.003000000     0.283000000
H    -0.041000000     2.630000000     1.118000000
C    -1.421000000     2.326000000    -0.537000000
H    -1.950000000     3.261000000    -0.368000000
C    -2.040000000     1.389000000    -1.358000000
C    -3.336000000     1.670000000    -2.060000000
O    -3.867000000     2.747000000    -1.880000000
O    -3.873000000     0.868000000    -2.779000000
