14
-87.81269
C    -1.467000000    -0.127000000     1.909000000
H    -1.791000000    -0.641000000     2.811000000
C    -0.880000000    -0.785000000     0.795000000
H    -0.632000000    -1.843000000     0.827000000
C    -0.559000000    -0.117000000    -0.369000000
H    -0.213000000    -0.546000000    -1.182000000
C    -0.823000000     1.288000000    -0.418000000
H    -0.568000000     1.847000000    -1.315000000
C    -1.452000000     1.931000000     0.633000000
H    -1.679000000     2.990000000     0.548000000
C    -1.795000000     1.224000000     1.797000000
C    -2.709000000     1.774000000     2.844000000
O    -2.622000000     2.931000000     3.174000000
O    -3.449000000     1.000000000     3.470000000
