14
-88.91500
C    -2.307000000    -0.597000000    -1.400000000
H    -3.226000000    -1.090000000    -1.705000000
C    -1.325000000    -1.204000000    -0.676000000
H    -1.352000000    -2.284000000    -0.549000000
C    -0.295000000    -0.390000000    -0.105000000
H     0.429000000    -0.879000000     0.550000000
C    -0.236000000     1.023000000    -0.232000000
H     0.563000000     1.546000000     0.285000000
C    -1.200000000     1.591000000    -1.110000000
H    -1.140000000     2.675000000    -1.170000000
C    -2.273000000     0.800000000    -1.610000000
C    -3.371000000     1.467000000    -2.398000000
O    -3.293000000     2.630000000    -2.655000000
O    -4.335000000     0.754000000    -2.765000000
