14
-83.23038
C    -1.867000000    -0.288000000    -0.762000000
H    -2.413000000    -1.191000000    -1.023000000
C    -0.583000000    -0.468000000    -0.195000000
H    -0.114000000    -1.448000000    -0.192000000
C     0.145000000     0.646000000     0.080000000
H     1.127000000     0.600000000     0.542000000
C    -0.423000000     1.920000000    -0.152000000
H     0.158000000     2.810000000     0.074000000
C    -1.662000000     2.053000000    -0.757000000
H    -1.981000000     3.063000000    -1.003000000
C    -2.444000000     0.973000000    -0.947000000
C    -3.820000000     1.086000000    -1.481000000
O    -4.250000000     2.216000000    -1.531000000
O    -4.543000000     0.122000000    -1.498000000
