14
-82.24672
C    -0.653000000    -0.006000000     1.930000000
H    -0.633000000    -0.874000000     2.583000000
C    -0.224000000    -0.273000000     0.642000000
H    -0.020000000    -1.277000000     0.278000000
C    -0.004000000     0.730000000    -0.263000000
H     0.444000000     0.487000000    -1.196000000
C    -0.219000000     2.008000000     0.133000000
H    -0.061000000     2.812000000    -0.581000000
C    -0.769000000     2.297000000     1.332000000
H    -0.854000000     3.355000000     1.564000000
C    -0.982000000     1.323000000     2.321000000
C    -1.281000000     1.765000000     3.760000000
O    -1.315000000     2.986000000     3.952000000
O    -1.381000000     1.053000000     4.738000000
