14
-82.91183
C    -2.659000000    -1.251000000     0.238000000
H    -3.582000000    -1.797000000     0.419000000
C    -1.468000000    -1.932000000    -0.114000000
H    -1.575000000    -2.992000000    -0.330000000
C    -0.232000000    -1.248000000    -0.118000000
H     0.682000000    -1.782000000    -0.406000000
C    -0.169000000     0.084000000     0.129000000
H     0.777000000     0.594000000     0.294000000
C    -1.324000000     0.787000000     0.359000000
H    -1.161000000     1.855000000     0.485000000
C    -2.570000000     0.159000000     0.460000000
C    -3.817000000     0.912000000     0.802000000
O    -3.825000000     2.135000000     0.809000000
O    -4.865000000     0.339000000     0.740000000
