14
-86.27989
C    -2.173000000    -0.369000000    -0.142000000
H    -3.022000000    -0.978000000    -0.444000000
C    -0.930000000    -1.062000000    -0.204000000
H    -0.940000000    -2.120000000    -0.454000000
C     0.245000000    -0.338000000     0.093000000
H     1.193000000    -0.943000000     0.111000000
C     0.185000000     1.017000000     0.446000000
H     1.082000000     1.601000000     0.632000000
C    -1.082000000     1.660000000     0.562000000
H    -1.114000000     2.687000000     0.918000000
C    -2.248000000     0.996000000     0.272000000
C    -3.514000000     1.785000000     0.586000000
O    -3.505000000     2.971000000     0.725000000
O    -4.563000000     1.180000000     0.680000000
