14
-88.38820
C    -2.424000000    -0.656000000     0.427000000
H    -2.959000000    -1.599000000     0.510000000
C    -1.107000000    -0.737000000     0.053000000
H    -0.757000000    -1.707000000    -0.291000000
C    -0.256000000     0.344000000     0.062000000
H     0.767000000     0.146000000    -0.271000000
C    -0.680000000     1.561000000     0.569000000
H    -0.066000000     2.453000000     0.658000000
C    -2.010000000     1.670000000     1.051000000
H    -2.463000000     2.503000000     1.582000000
C    -2.896000000     0.556000000     0.906000000
C    -4.264000000     0.561000000     1.492000000
O    -4.541000000     1.404000000     2.330000000
O    -5.097000000    -0.276000000     1.161000000
