14
-82.05798
C    -2.824000000    -1.168000000     0.481000000
H    -3.793000000    -1.601000000     0.248000000
C    -1.700000000    -1.499000000    -0.325000000
H    -1.809000000    -2.217000000    -1.133000000
C    -0.464000000    -0.979000000    -0.027000000
H     0.411000000    -1.244000000    -0.702000000
C    -0.335000000    -0.110000000     1.054000000
H     0.660000000     0.272000000     1.267000000
C    -1.394000000     0.404000000     1.802000000
H    -1.258000000     1.135000000     2.595000000
C    -2.653000000    -0.222000000     1.484000000
C    -3.822000000     0.327000000     2.231000000
O    -3.791000000     1.388000000     2.782000000
O    -4.904000000    -0.173000000     2.007000000
