14
-83.36127
C    -2.347000000    -0.840000000     0.697000000
H    -3.080000000    -1.635000000     0.808000000
C    -1.157000000    -1.186000000     0.114000000
H    -0.980000000    -2.190000000    -0.263000000
C    -0.146000000    -0.240000000     0.015000000
H     0.833000000    -0.420000000    -0.549000000
C    -0.319000000     0.986000000     0.724000000
H     0.504000000     1.696000000     0.717000000
C    -1.528000000     1.269000000     1.300000000
H    -1.612000000     2.278000000     1.695000000
C    -2.591000000     0.329000000     1.312000000
C    -3.949000000     0.713000000     1.877000000
O    -4.137000000     1.910000000     2.049000000
O    -4.812000000    -0.078000000     1.990000000
