14
-91.77036
C    -2.659000000    -0.419000000     1.089000000
H    -3.334000000    -1.265000000     1.187000000
C    -1.502000000    -0.443000000     0.317000000
H    -1.258000000    -1.373000000    -0.191000000
C    -0.596000000     0.665000000     0.246000000
H     0.220000000     0.564000000    -0.361000000
C    -0.873000000     1.800000000     1.064000000
H    -0.138000000     2.591000000     0.939000000
C    -2.032000000     1.802000000     1.889000000
H    -2.366000000     2.664000000     2.461000000
C    -2.870000000     0.689000000     1.910000000
C    -4.064000000     0.644000000     2.854000000
O    -4.455000000     1.673000000     3.428000000
O    -4.707000000    -0.417000000     2.972000000
