14
-91.31836
C    -2.135000000    -0.184000000     1.247000000
H    -2.996000000    -0.719000000     1.641000000
C    -1.219000000    -0.740000000     0.399000000
H    -1.440000000    -1.746000000     0.051000000
C    -0.081000000    -0.073000000     0.057000000
H     0.598000000    -0.595000000    -0.559000000
C     0.161000000     1.222000000     0.518000000
H     1.045000000     1.788000000     0.234000000
C    -0.806000000     1.856000000     1.264000000
H    -0.701000000     2.926000000     1.419000000
C    -1.943000000     1.168000000     1.683000000
C    -3.031000000     1.989000000     2.364000000
O    -2.762000000     3.120000000     2.752000000
O    -4.081000000     1.409000000     2.609000000
