14
-89.44738
C    -3.007000000    -0.399000000     1.242000000
H    -3.712000000    -1.036000000     1.771000000
C    -2.178000000    -0.856000000     0.235000000
H    -2.051000000    -1.924000000     0.079000000
C    -1.405000000     0.098000000    -0.442000000
H    -0.727000000    -0.209000000    -1.213000000
C    -1.438000000     1.473000000    -0.203000000
H    -0.866000000     2.146000000    -0.836000000
C    -2.264000000     1.894000000     0.797000000
H    -2.317000000     2.970000000     0.938000000
C    -3.098000000     1.010000000     1.494000000
C    -4.137000000     1.528000000     2.482000000
O    -4.272000000     2.737000000     2.638000000
O    -5.001000000     0.777000000     2.931000000
