14
-78.50343
C    -2.247000000    -0.943000000     0.529000000
H    -3.229000000    -1.409000000     0.563000000
C    -1.302000000    -1.375000000    -0.404000000
H    -1.476000000    -2.205000000    -1.084000000
C    -0.070000000    -0.622000000    -0.482000000
H     0.669000000    -0.956000000    -1.158000000
C     0.157000000     0.429000000     0.410000000
H     1.054000000     1.001000000     0.187000000
C    -0.857000000     0.780000000     1.358000000
H    -0.720000000     1.668000000     1.970000000
C    -2.030000000     0.053000000     1.459000000
C    -3.118000000     0.511000000     2.263000000
O    -2.952000000     1.432000000     2.991000000
O    -4.241000000     0.075000000     2.105000000
