14
-76.49968
C    -1.318000000    -0.923000000    -0.118000000
H    -1.681000000    -1.683000000    -0.805000000
C    -0.078000000    -0.228000000    -0.335000000
H     0.507000000    -0.439000000    -1.226000000
C     0.309000000     0.656000000     0.650000000
H     1.264000000     1.209000000     0.577000000
C    -0.512000000     0.910000000     1.698000000
H    -0.279000000     1.696000000     2.412000000
C    -1.656000000     0.135000000     1.969000000
H    -2.269000000     0.291000000     2.853000000
C    -2.126000000    -0.740000000     1.000000000
C    -3.364000000    -1.558000000     1.181000000
O    -4.044000000    -1.446000000     2.137000000
O    -3.940000000    -2.029000000     0.197000000
