14
-83.84923
C    -2.092000000    -1.994000000    -0.178000000
H    -2.630000000    -2.780000000    -0.704000000
C    -0.831000000    -1.491000000    -0.760000000
H    -0.420000000    -1.864000000    -1.695000000
C    -0.181000000    -0.513000000    -0.026000000
H     0.687000000    -0.127000000    -0.449000000
C    -0.779000000     0.118000000     1.065000000
H    -0.294000000     0.991000000     1.494000000
C    -1.955000000    -0.451000000     1.638000000
H    -2.368000000    -0.200000000     2.612000000
C    -2.598000000    -1.510000000     0.983000000
C    -3.952000000    -1.986000000     1.492000000
O    -4.467000000    -1.424000000     2.425000000
O    -4.564000000    -2.893000000     0.960000000
