14
-89.43643
C    -1.657000000    -1.244000000     0.506000000
H    -2.246000000    -2.115000000     0.229000000
C    -0.510000000    -0.900000000    -0.166000000
H    -0.207000000    -1.330000000    -1.117000000
C     0.231000000     0.180000000     0.299000000
H     1.095000000     0.575000000    -0.258000000
C    -0.140000000     0.851000000     1.456000000
H     0.451000000     1.681000000     1.833000000
C    -1.255000000     0.461000000     2.195000000
H    -1.636000000     1.047000000     3.027000000
C    -2.043000000    -0.614000000     1.740000000
C    -3.337000000    -1.048000000     2.450000000
O    -3.801000000    -0.345000000     3.303000000
O    -3.883000000    -2.131000000     2.226000000
