14
-86.04074
C    -2.289000000    -0.702000000     0.214000000
H    -3.103000000    -1.057000000    -0.413000000
C    -1.044000000    -0.392000000    -0.312000000
H    -0.765000000    -0.693000000    -1.319000000
C    -0.136000000     0.302000000     0.531000000
H     0.856000000     0.564000000     0.146000000
C    -0.485000000     0.713000000     1.782000000
H     0.187000000     1.293000000     2.410000000
C    -1.680000000     0.286000000     2.289000000
H    -1.990000000     0.625000000     3.274000000
C    -2.598000000    -0.413000000     1.534000000
C    -3.964000000    -0.806000000     2.154000000
O    -4.067000000    -0.759000000     3.347000000
O    -4.950000000    -1.161000000     1.526000000
