14
-87.14472
C    -2.211000000    -0.334000000     0.202000000
H    -3.059000000    -0.714000000    -0.361000000
C    -0.925000000    -0.212000000    -0.375000000
H    -0.835000000    -0.437000000    -1.435000000
C     0.196000000     0.128000000     0.356000000
H     1.121000000     0.198000000    -0.114000000
C     0.042000000     0.412000000     1.714000000
H     0.891000000     0.665000000     2.342000000
C    -1.241000000     0.397000000     2.304000000
H    -1.285000000     0.542000000     3.380000000
C    -2.341000000    -0.116000000     1.563000000
C    -3.756000000    -0.125000000     2.119000000
O    -3.962000000     0.396000000     3.204000000
O    -4.681000000    -0.676000000     1.577000000
