14
-91.60999
C    -1.192000000    -0.583000000     2.361000000
H    -1.845000000    -1.433000000     2.542000000
C    -0.342000000    -0.615000000     1.256000000
H    -0.349000000    -1.474000000     0.590000000
C     0.515000000     0.399000000     0.873000000
H     1.110000000     0.263000000    -0.020000000
C     0.508000000     1.563000000     1.698000000
H     1.100000000     2.441000000     1.454000000
C    -0.355000000     1.614000000     2.768000000
H    -0.462000000     2.533000000     3.338000000
C    -1.187000000     0.593000000     3.167000000
C    -2.066000000     0.816000000     4.483000000
O    -2.123000000     1.939000000     4.915000000
O    -2.737000000    -0.142000000     4.891000000
