14
-89.86628
C    -0.411000000    -0.441000000     2.077000000
H    -0.230000000    -1.098000000     2.924000000
C     0.129000000    -0.769000000     0.816000000
H     0.567000000    -1.751000000     0.656000000
C    -0.179000000     0.026000000    -0.269000000
H     0.087000000    -0.211000000    -1.235000000
C    -0.854000000     1.240000000    -0.043000000
H    -0.933000000     1.994000000    -0.822000000
C    -1.288000000     1.581000000     1.214000000
H    -1.838000000     2.517000000     1.267000000
C    -1.134000000     0.719000000     2.277000000
C    -1.956000000     0.970000000     3.532000000
O    -2.736000000     1.914000000     3.564000000
O    -1.851000000     0.240000000     4.538000000
