14
-83.82322
C    -0.600000000    -0.108000000     2.490000000
H    -0.845000000    -0.660000000     3.394000000
C     0.440000000    -0.558000000     1.668000000
H     1.020000000    -1.416000000     1.997000000
C     0.515000000    -0.154000000     0.351000000
H     1.383000000    -0.452000000    -0.241000000
C    -0.357000000     0.755000000    -0.169000000
H    -0.206000000     1.126000000    -1.179000000
C    -1.423000000     1.300000000     0.605000000
H    -2.122000000     1.925000000     0.056000000
C    -1.474000000     0.941000000     2.009000000
C    -2.633000000     1.454000000     2.818000000
O    -3.657000000     1.895000000     2.264000000
O    -2.597000000     1.413000000     4.032000000
