14
-77.93276
C    -0.333000000    -0.823000000     1.991000000
H    -0.292000000    -1.592000000     2.758000000
C     0.443000000    -0.955000000     0.833000000
H     1.208000000    -1.724000000     0.769000000
C     0.470000000     0.097000000    -0.102000000
H     1.220000000     0.242000000    -0.935000000
C    -0.386000000     1.165000000     0.075000000
H    -0.664000000     1.848000000    -0.724000000
C    -1.185000000     1.230000000     1.241000000
H    -1.957000000     1.995000000     1.264000000
C    -1.149000000     0.233000000     2.205000000
C    -1.929000000     0.391000000     3.429000000
O    -3.076000000     0.749000000     3.365000000
O    -1.536000000    -0.264000000     4.393000000
