14
-86.62828
C    -0.644000000    -0.903000000     2.193000000
H    -0.520000000    -1.682000000     2.940000000
C    -0.252000000    -1.223000000     0.933000000
H     0.295000000    -2.140000000     0.729000000
C    -0.709000000    -0.379000000    -0.132000000
H    -0.342000000    -0.538000000    -1.181000000
C    -1.511000000     0.716000000     0.094000000
H    -1.698000000     1.399000000    -0.732000000
C    -1.927000000     1.002000000     1.422000000
H    -2.516000000     1.864000000     1.726000000
C    -1.454000000     0.165000000     2.477000000
C    -1.990000000     0.324000000     3.913000000
O    -2.936000000     1.086000000     4.128000000
O    -1.594000000    -0.403000000     4.790000000
