14
-90.19773
C    -0.147000000    -0.651000000     1.866000000
H     0.428000000    -1.359000000     2.458000000
C     0.231000000    -0.480000000     0.558000000
H     1.019000000    -1.104000000     0.145000000
C    -0.518000000     0.358000000    -0.252000000
H    -0.313000000     0.363000000    -1.304000000
C    -1.590000000     1.077000000     0.202000000
H    -2.181000000     1.817000000    -0.333000000
C    -1.856000000     1.011000000     1.563000000
H    -2.578000000     1.659000000     2.053000000
C    -1.114000000     0.223000000     2.401000000
C    -1.472000000     0.126000000     3.941000000
O    -2.347000000     0.859000000     4.400000000
O    -0.982000000    -0.827000000     4.513000000
