14
-84.37017
C    -0.149000000    -1.208000000     2.203000000
H     0.215000000    -1.905000000     2.954000000
C     0.397000000    -1.320000000     0.963000000
H     1.080000000    -2.144000000     0.775000000
C     0.148000000    -0.298000000    -0.013000000
H     0.606000000    -0.236000000    -0.978000000
C    -0.687000000     0.746000000     0.321000000
H    -0.907000000     1.529000000    -0.400000000
C    -1.249000000     0.850000000     1.601000000
H    -1.835000000     1.733000000     1.845000000
C    -0.992000000    -0.146000000     2.551000000
C    -1.564000000    -0.068000000     3.936000000
O    -2.477000000     0.662000000     4.311000000
O    -1.123000000    -0.816000000     4.751000000
