14
-80.57170
C    -0.598000000    -1.166000000     2.314000000
H    -0.624000000    -2.038000000     2.963000000
C    -0.060000000    -1.374000000     1.002000000
H     0.316000000    -2.359000000     0.737000000
C    -0.082000000    -0.405000000     0.022000000
H     0.187000000    -0.625000000    -0.976000000
C    -0.517000000     0.868000000     0.358000000
H    -0.584000000     1.602000000    -0.442000000
C    -1.100000000     1.114000000     1.570000000
H    -1.458000000     2.115000000     1.799000000
C    -1.277000000     0.099000000     2.520000000
C    -1.959000000     0.428000000     3.802000000
O    -2.349000000     1.530000000     4.047000000
O    -2.198000000    -0.446000000     4.599000000
