14
-81.02927
C    -0.379000000    -0.820000000     2.517000000
H    -0.297000000    -1.380000000     3.445000000
C     0.178000000    -1.308000000     1.341000000
H     0.676000000    -2.271000000     1.259000000
C     0.451000000    -0.442000000     0.302000000
H     1.061000000    -0.787000000    -0.552000000
C    -0.213000000     0.769000000     0.263000000
H    -0.059000000     1.396000000    -0.611000000
C    -1.017000000     1.154000000     1.403000000
H    -1.484000000     2.131000000     1.493000000
C    -1.080000000     0.323000000     2.550000000
C    -1.855000000     0.760000000     3.772000000
O    -2.855000000     1.458000000     3.610000000
O    -1.757000000     0.118000000     4.823000000
