14
-88.46580
C    -1.298000000     0.079000000     1.864000000
H    -2.110000000    -0.146000000     2.550000000
C    -0.895000000    -1.023000000     1.090000000
H    -1.289000000    -2.000000000     1.358000000
C     0.084000000    -0.809000000     0.052000000
H     0.538000000    -1.653000000    -0.511000000
C     0.541000000     0.445000000    -0.231000000
H     1.200000000     0.527000000    -1.091000000
C     0.010000000     1.492000000     0.520000000
H     0.465000000     2.458000000     0.316000000
C    -0.856000000     1.354000000     1.576000000
C    -1.526000000     2.588000000     2.209000000
O    -1.417000000     3.650000000     1.619000000
O    -2.142000000     2.481000000     3.269000000
