14
-74.41238
C    -1.096000000     1.074000000     1.991000000
H    -1.826000000     1.125000000     2.795000000
C    -0.371000000    -0.116000000     1.714000000
H    -0.437000000    -1.008000000     2.332000000
C     0.236000000    -0.227000000     0.415000000
H     0.587000000    -1.189000000     0.041000000
C     0.305000000     0.834000000    -0.445000000
H     0.740000000     0.715000000    -1.434000000
C    -0.291000000     2.049000000    -0.088000000
H    -0.343000000     2.816000000    -0.856000000
C    -0.964000000     2.191000000     1.146000000
C    -1.644000000     3.489000000     1.510000000
O    -1.845000000     4.434000000     0.805000000
O    -2.107000000     3.623000000     2.598000000
