14
-76.61673
C     0.068000000    -0.213000000     1.541000000
H     0.893000000    -0.621000000     2.120000000
C     0.243000000     0.136000000     0.216000000
H     1.172000000     0.175000000    -0.347000000
C    -0.887000000     0.526000000    -0.412000000
H    -0.754000000     0.835000000    -1.420000000
C    -2.138000000     0.516000000     0.110000000
H    -3.006000000     0.865000000    -0.442000000
C    -2.277000000     0.199000000     1.460000000
H    -3.232000000     0.228000000     1.979000000
C    -1.168000000    -0.132000000     2.233000000
C    -1.349000000    -0.421000000     3.686000000
O    -2.491000000    -0.476000000     4.170000000
O    -0.462000000    -0.856000000     4.290000000
