14
-88.96006
C     0.026000000    -0.548000000     2.399000000
H     0.589000000    -0.874000000     3.269000000
C     0.501000000    -0.631000000     1.118000000
H     1.463000000    -1.102000000     0.936000000
C    -0.196000000    -0.031000000     0.049000000
H     0.320000000     0.139000000    -0.894000000
C    -1.397000000     0.591000000     0.277000000
H    -1.985000000     1.042000000    -0.518000000
C    -1.985000000     0.495000000     1.514000000
H    -2.995000000     0.894000000     1.564000000
C    -1.282000000     0.033000000     2.626000000
C    -1.927000000     0.108000000     4.005000000
O    -3.107000000     0.338000000     4.124000000
O    -1.246000000    -0.087000000     5.041000000
