14
-84.58547
C    -0.417000000    -0.722000000     2.483000000
H    -0.042000000    -0.985000000     3.469000000
C     0.384000000    -0.910000000     1.338000000
H     1.346000000    -1.406000000     1.432000000
C     0.073000000    -0.210000000     0.155000000
H     0.751000000    -0.136000000    -0.706000000
C    -1.127000000     0.510000000     0.069000000
H    -1.455000000     1.064000000    -0.807000000
C    -1.874000000     0.739000000     1.240000000
H    -2.666000000     1.479000000     1.158000000
C    -1.509000000     0.170000000     2.436000000
C    -2.407000000     0.379000000     3.558000000
O    -3.342000000     1.166000000     3.453000000
O    -2.347000000    -0.290000000     4.621000000
