14
-80.55582
C     0.022000000    -1.633000000     1.043000000
H     0.525000000    -2.446000000     1.560000000
C     0.713000000    -0.737000000     0.283000000
H     1.787000000    -0.875000000     0.188000000
C     0.127000000     0.424000000    -0.291000000
H     0.722000000     0.982000000    -0.949000000
C    -1.208000000     0.632000000    -0.071000000
H    -1.761000000     1.304000000    -0.722000000
C    -1.925000000    -0.394000000     0.590000000
H    -3.009000000    -0.325000000     0.537000000
C    -1.366000000    -1.465000000     1.239000000
C    -2.289000000    -2.437000000     1.903000000
O    -3.496000000    -2.326000000     1.869000000
O    -1.791000000    -3.130000000     2.774000000
