14
-84.28143
C    -0.407000000    -2.308000000     1.872000000
H     0.028000000    -3.041000000     2.546000000
C     0.373000000    -1.471000000     1.097000000
H     1.453000000    -1.593000000     1.120000000
C    -0.221000000    -0.505000000     0.346000000
H     0.485000000     0.213000000    -0.224000000
C    -1.588000000    -0.453000000     0.298000000
H    -1.853000000     0.258000000    -0.481000000
C    -2.374000000    -1.212000000     1.070000000
H    -3.445000000    -1.027000000     1.093000000
C    -1.797000000    -2.219000000     1.858000000
C    -2.658000000    -3.085000000     2.768000000
O    -3.830000000    -2.814000000     2.842000000
O    -2.180000000    -3.988000000     3.453000000
