14
-91.15110
C    -1.551000000    -1.730000000     1.019000000
H    -2.321000000    -2.473000000     1.208000000
C    -1.271000000    -1.527000000    -0.327000000
H    -1.818000000    -2.088000000    -1.081000000
C    -0.279000000    -0.560000000    -0.667000000
H    -0.112000000    -0.363000000    -1.730000000
C     0.387000000     0.146000000     0.315000000
H     1.195000000     0.819000000     0.039000000
C     0.076000000    -0.082000000     1.685000000
H     0.688000000     0.332000000     2.482000000
C    -0.893000000    -1.035000000     2.051000000
C    -1.253000000    -1.380000000     3.482000000
O    -0.657000000    -0.944000000     4.442000000
O    -2.099000000    -2.249000000     3.635000000
