14
-85.45910
C    -1.439000000    -0.446000000     2.060000000
H    -2.423000000    -0.271000000     2.489000000
C    -1.174000000     0.045000000     0.800000000
H    -1.930000000     0.605000000     0.254000000
C     0.105000000    -0.154000000     0.212000000
H     0.362000000     0.116000000    -0.781000000
C     1.006000000    -0.965000000     0.931000000
H     1.991000000    -1.222000000     0.549000000
C     0.771000000    -1.423000000     2.193000000
H     1.616000000    -1.929000000     2.653000000
C    -0.472000000    -1.117000000     2.822000000
C    -0.665000000    -1.678000000     4.190000000
O     0.099000000    -2.426000000     4.688000000
O    -1.698000000    -1.336000000     4.787000000
