14
-82.09363
C    -1.846000000    -0.149000000     0.838000000
H    -2.833000000    -0.060000000     1.285000000
C    -1.395000000     0.801000000    -0.134000000
H    -2.154000000     1.503000000    -0.469000000
C    -0.052000000     0.887000000    -0.539000000
H     0.345000000     1.548000000    -1.336000000
C     0.832000000    -0.186000000    -0.147000000
H     1.821000000    -0.179000000    -0.596000000
C     0.359000000    -1.132000000     0.804000000
H     0.945000000    -1.911000000     1.284000000
C    -0.946000000    -1.076000000     1.362000000
C    -1.524000000    -2.062000000     2.364000000
O    -0.852000000    -2.932000000     2.899000000
O    -2.594000000    -1.796000000     2.883000000
