14
-85.16057
C    -1.600000000     0.485000000     0.515000000
H    -2.496000000     1.100000000     0.517000000
C    -0.664000000     0.617000000    -0.459000000
H    -0.973000000     1.314000000    -1.234000000
C     0.596000000     0.000000000    -0.394000000
H     1.318000000     0.239000000    -1.154000000
C     0.822000000    -0.949000000     0.635000000
H     1.785000000    -1.448000000     0.699000000
C    -0.245000000    -1.245000000     1.482000000
H    -0.003000000    -1.938000000     2.283000000
C    -1.455000000    -0.549000000     1.444000000
C    -2.480000000    -0.723000000     2.507000000
O    -2.584000000    -1.696000000     3.227000000
O    -3.345000000     0.132000000     2.566000000
