14
-86.54403
C    -2.748000000     0.400000000     0.408000000
H    -3.698000000     0.877000000     0.181000000
C    -1.521000000     0.841000000    -0.120000000
H    -1.548000000     1.635000000    -0.862000000
C    -0.353000000     0.202000000     0.121000000
H     0.555000000     0.483000000    -0.319000000
C    -0.286000000    -0.858000000     0.964000000
H     0.672000000    -1.312000000     1.206000000
C    -1.474000000    -1.186000000     1.650000000
H    -1.374000000    -1.951000000     2.416000000
C    -2.705000000    -0.677000000     1.305000000
C    -3.980000000    -1.084000000     2.042000000
O    -3.989000000    -1.868000000     2.963000000
O    -4.992000000    -0.514000000     1.700000000
