14
-81.80710
C    -2.299000000     0.831000000     0.656000000
H    -3.183000000     1.413000000     0.905000000
C    -1.506000000     1.115000000    -0.425000000
H    -1.858000000     1.947000000    -1.030000000
C    -0.313000000     0.495000000    -0.698000000
H     0.299000000     0.856000000    -1.533000000
C     0.070000000    -0.491000000     0.237000000
H     1.031000000    -0.889000000    -0.080000000
C    -0.809000000    -0.918000000     1.231000000
H    -0.407000000    -1.704000000     1.866000000
C    -1.906000000    -0.196000000     1.526000000
C    -2.752000000    -0.483000000     2.766000000
O    -2.343000000    -1.331000000     3.522000000
O    -3.566000000     0.344000000     3.126000000
