14
-89.24905
C    -0.715000000     1.081000000    -0.382000000
H    -1.035000000     1.848000000    -1.082000000
C     0.266000000     0.221000000    -0.841000000
H     0.625000000     0.365000000    -1.857000000
C     0.890000000    -0.675000000     0.035000000
H     1.623000000    -1.303000000    -0.422000000
C     0.278000000    -0.900000000     1.298000000
H     0.718000000    -1.711000000     1.872000000
C    -0.669000000     0.038000000     1.804000000
H    -1.071000000    -0.017000000     2.813000000
C    -1.164000000     1.056000000     0.927000000
C    -2.268000000     1.987000000     1.475000000
O    -2.634000000     1.752000000     2.619000000
O    -2.736000000     2.863000000     0.796000000
