14
-76.55425
C    -1.785000000     1.412000000     0.162000000
H    -2.335000000     2.348000000     0.104000000
C    -0.807000000     1.095000000    -0.832000000
H    -0.844000000     1.751000000    -1.698000000
C    -0.032000000    -0.050000000    -0.638000000
H     0.766000000    -0.255000000    -1.412000000
C    -0.075000000    -0.764000000     0.553000000
H     0.769000000    -1.393000000     0.824000000
C    -1.065000000    -0.502000000     1.435000000
H    -1.069000000    -1.103000000     2.340000000
C    -1.898000000     0.615000000     1.299000000
C    -2.934000000     0.916000000     2.318000000
O    -2.858000000     0.459000000     3.378000000
O    -3.932000000     1.546000000     2.005000000
