14
-85.69604
C    -2.153000000     0.533000000     0.355000000
H    -2.882000000     1.250000000    -0.015000000
C    -0.910000000     0.402000000    -0.281000000
H    -0.540000000     1.052000000    -1.070000000
C     0.027000000    -0.499000000     0.169000000
H     1.030000000    -0.646000000    -0.380000000
C    -0.297000000    -1.391000000     1.165000000
H     0.446000000    -2.118000000     1.481000000
C    -1.529000000    -1.372000000     1.760000000
H    -1.848000000    -2.156000000     2.443000000
C    -2.473000000    -0.421000000     1.360000000
C    -3.916000000    -0.402000000     2.016000000
O    -4.203000000    -1.189000000     2.874000000
O    -4.687000000     0.503000000     1.771000000
