14
-87.94444
C    -1.858000000     0.283000000     0.007000000
H    -2.530000000     0.628000000    -0.776000000
C    -0.494000000     0.206000000    -0.356000000
H    -0.108000000     0.383000000    -1.356000000
C     0.466000000    -0.238000000     0.595000000
H     1.462000000    -0.351000000     0.314000000
C     0.019000000    -0.603000000     1.851000000
H     0.727000000    -0.832000000     2.643000000
C    -1.359000000    -0.618000000     2.162000000
H    -1.750000000    -1.101000000     3.054000000
C    -2.306000000    -0.213000000     1.222000000
C    -3.825000000    -0.166000000     1.518000000
O    -4.261000000    -0.260000000     2.671000000
O    -4.598000000     0.285000000     0.668000000
