14
-78.69804
C    -1.789000000     0.870000000     0.138000000
H    -2.502000000     1.329000000    -0.543000000
C    -0.557000000     0.460000000    -0.261000000
H    -0.218000000     0.671000000    -1.273000000
C     0.352000000    -0.161000000     0.613000000
H     1.412000000    -0.401000000     0.332000000
C    -0.112000000    -0.562000000     1.800000000
H     0.546000000    -1.101000000     2.477000000
C    -1.368000000    -0.154000000     2.263000000
H    -1.704000000    -0.466000000     3.248000000
C    -2.163000000     0.645000000     1.453000000
C    -3.542000000     0.939000000     1.896000000
O    -3.990000000     0.366000000     2.820000000
O    -4.319000000     1.636000000     1.244000000
