14
-87.69715
C    -1.546000000     1.030000000     0.738000000
H    -2.160000000     1.775000000     0.238000000
C    -0.447000000     0.662000000     0.053000000
H    -0.205000000     1.007000000    -0.949000000
C     0.476000000    -0.240000000     0.657000000
H     1.337000000    -0.564000000     0.213000000
C     0.142000000    -0.811000000     1.867000000
H     0.825000000    -1.389000000     2.483000000
C    -0.978000000    -0.393000000     2.579000000
H    -1.215000000    -0.834000000     3.543000000
C    -1.872000000     0.532000000     1.993000000
C    -3.135000000     0.894000000     2.743000000
O    -3.433000000     0.385000000     3.788000000
O    -3.770000000     1.838000000     2.250000000
