14
-77.99110
C    -2.590000000     1.865000000     0.226000000
H    -3.156000000     2.790000000     0.149000000
C    -1.639000000     1.649000000    -0.750000000
H    -1.590000000     2.326000000    -1.599000000
C    -0.685000000     0.688000000    -0.554000000
H     0.227000000     0.471000000    -1.156000000
C    -0.790000000    -0.125000000     0.528000000
H    -0.045000000    -0.889000000     0.737000000
C    -1.827000000     0.012000000     1.471000000
H    -1.897000000    -0.586000000     2.376000000
C    -2.836000000     1.004000000     1.295000000
C    -3.854000000     1.284000000     2.351000000
O    -4.159000000     0.508000000     3.223000000
O    -4.628000000     2.199000000     2.176000000
