14
-88.72340
C    -1.113000000     0.644000000     0.170000000
H    -1.616000000     1.433000000    -0.383000000
C     0.039000000     0.031000000    -0.344000000
H     0.554000000     0.361000000    -1.243000000
C     0.649000000    -1.007000000     0.409000000
H     1.633000000    -1.405000000     0.092000000
C     0.053000000    -1.437000000     1.580000000
H     0.570000000    -2.275000000     2.039000000
C    -1.128000000    -0.888000000     2.014000000
H    -1.583000000    -1.269000000     2.925000000
C    -1.699000000     0.166000000     1.354000000
C    -2.993000000     0.721000000     1.952000000
O    -3.576000000     0.180000000     2.911000000
O    -3.390000000     1.738000000     1.502000000
