14
-86.57422
C    -1.361000000     1.745000000     0.685000000
H    -1.987000000     2.608000000     0.477000000
C    -0.784000000     1.231000000    -0.449000000
H    -0.915000000     1.701000000    -1.420000000
C     0.094000000     0.137000000    -0.394000000
H     0.522000000    -0.261000000    -1.262000000
C     0.380000000    -0.424000000     0.820000000
H     1.059000000    -1.269000000     0.893000000
C    -0.325000000     0.047000000     1.929000000
H    -0.061000000    -0.379000000     2.894000000
C    -1.227000000     1.083000000     1.915000000
C    -2.067000000     1.549000000     3.129000000
O    -2.008000000     0.829000000     4.146000000
O    -2.495000000     2.663000000     3.198000000
