14
-84.90647
C    -0.359000000     2.344000000     1.600000000
H    -0.296000000     3.411000000     1.794000000
C    -0.080000000     1.760000000     0.331000000
H    -0.069000000     2.431000000    -0.525000000
C    -0.006000000     0.399000000     0.159000000
H     0.069000000    -0.028000000    -0.776000000
C    -0.098000000    -0.388000000     1.278000000
H     0.099000000    -1.440000000     1.089000000
C    -0.365000000     0.146000000     2.525000000
H    -0.444000000    -0.476000000     3.413000000
C    -0.621000000     1.522000000     2.728000000
C    -0.854000000     2.097000000     4.095000000
O    -1.221000000     1.381000000     4.999000000
O    -0.703000000     3.270000000     4.287000000
