14
-88.88960
C     0.109000000     2.482000000     1.353000000
H     0.070000000     3.551000000     1.158000000
C    -0.049000000     1.563000000     0.263000000
H    -0.166000000     1.930000000    -0.754000000
C    -0.077000000     0.214000000     0.497000000
H    -0.130000000    -0.503000000    -0.370000000
C     0.246000000    -0.249000000     1.738000000
H     0.493000000    -1.304000000     1.829000000
C     0.498000000     0.601000000     2.795000000
H     0.646000000     0.135000000     3.766000000
C     0.427000000     2.026000000     2.630000000
C     0.613000000     3.032000000     3.707000000
O     1.143000000     2.674000000     4.756000000
O     0.156000000     4.164000000     3.562000000
