14
-77.46463
C     0.351000000     2.093000000     0.260000000
H     0.551000000     2.981000000    -0.333000000
C     0.183000000     0.938000000    -0.445000000
H     0.280000000     0.853000000    -1.524000000
C     0.150000000    -0.280000000     0.199000000
H     0.252000000    -1.219000000    -0.320000000
C     0.015000000    -0.352000000     1.570000000
H    -0.099000000    -1.353000000     1.980000000
C     0.078000000     0.748000000     2.379000000
H    -0.016000000     0.732000000     3.461000000
C     0.330000000     1.981000000     1.700000000
C     0.624000000     3.215000000     2.474000000
O     0.390000000     3.299000000     3.660000000
O     1.008000000     4.231000000     1.959000000
