14
-89.35335
C     0.426000000     2.607000000     0.615000000
H     0.615000000     3.656000000     0.399000000
C     0.112000000     1.708000000    -0.347000000
H    -0.057000000     2.000000000    -1.380000000
C    -0.126000000     0.350000000     0.013000000
H    -0.566000000    -0.308000000    -0.667000000
C    -0.025000000    -0.068000000     1.307000000
H    -0.321000000    -1.079000000     1.576000000
C     0.380000000     0.814000000     2.296000000
H     0.291000000     0.582000000     3.355000000
C     0.573000000     2.148000000     1.962000000
C     0.891000000     3.128000000     3.065000000
O     0.687000000     2.768000000     4.225000000
O     1.117000000     4.318000000     2.833000000
