14
-85.95498
C     0.287000000     2.719000000     0.556000000
H     0.471000000     3.719000000     0.170000000
C     0.176000000     1.730000000    -0.428000000
H     0.271000000     1.947000000    -1.489000000
C    -0.028000000     0.423000000    -0.059000000
H    -0.244000000    -0.319000000    -0.847000000
C    -0.132000000     0.090000000     1.276000000
H    -0.291000000    -0.961000000     1.504000000
C    -0.002000000     1.039000000     2.270000000
H    -0.204000000     0.680000000     3.276000000
C     0.210000000     2.361000000     1.928000000
C     0.320000000     3.392000000     3.019000000
O     0.306000000     3.129000000     4.264000000
O     0.597000000     4.568000000     2.782000000
