14
-92.91216
C     0.110000000     1.936000000     0.939000000
H     0.186000000     3.021000000     0.930000000
C     0.249000000     1.260000000    -0.301000000
H     0.411000000     1.819000000    -1.219000000
C     0.260000000    -0.128000000    -0.361000000
H     0.228000000    -0.654000000    -1.338000000
C     0.152000000    -0.873000000     0.865000000
H     0.192000000    -1.959000000     0.833000000
C     0.059000000    -0.152000000     2.082000000
H    -0.003000000    -0.702000000     3.017000000
C     0.066000000     1.259000000     2.104000000
C    -0.345000000     2.035000000     3.364000000
O     0.040000000     1.625000000     4.456000000
O    -1.111000000     3.004000000     3.203000000
