14
-82.20842
C     0.090000000     1.683000000     1.491000000
H     0.241000000     2.631000000     0.980000000
C     0.256000000     0.558000000     0.710000000
H     0.461000000     0.687000000    -0.350000000
C     0.154000000    -0.730000000     1.250000000
H     0.311000000    -1.672000000     0.620000000
C    -0.146000000    -0.849000000     2.552000000
H    -0.136000000    -1.830000000     3.020000000
C    -0.251000000     0.305000000     3.390000000
H    -0.427000000     0.281000000     4.462000000
C    -0.123000000     1.574000000     2.897000000
C    -0.403000000     2.804000000     3.732000000
O    -0.811000000     2.716000000     4.889000000
O    -0.324000000     3.842000000     3.208000000
