14
-88.30879
C     0.205000000     2.113000000     1.249000000
H     0.157000000     3.117000000     0.834000000
C     0.183000000     1.094000000     0.334000000
H     0.110000000     1.240000000    -0.740000000
C     0.202000000    -0.209000000     0.761000000
H     0.112000000    -1.035000000     0.095000000
C     0.326000000    -0.519000000     2.125000000
H     0.244000000    -1.548000000     2.464000000
C     0.431000000     0.476000000     3.021000000
H     0.557000000     0.241000000     4.075000000
C     0.340000000     1.801000000     2.592000000
C     0.348000000     2.905000000     3.610000000
O     0.586000000     2.614000000     4.773000000
O    -0.133000000     3.975000000     3.303000000
