14
-83.44766
C     0.178000000     2.554000000     2.110000000
H     0.419000000     3.613000000     2.070000000
C     0.054000000     1.818000000     0.895000000
H     0.188000000     2.294000000    -0.073000000
C    -0.078000000     0.414000000     0.942000000
H    -0.235000000    -0.121000000    -0.006000000
C    -0.449000000    -0.149000000     2.141000000
H    -0.700000000    -1.203000000     2.226000000
C    -0.277000000     0.538000000     3.336000000
H    -0.641000000     0.070000000     4.247000000
C    -0.055000000     1.923000000     3.333000000
C    -0.035000000     2.659000000     4.602000000
O     0.126000000     2.074000000     5.639000000
O    -0.493000000     3.839000000     4.624000000
