14
-95.48299
C    -0.361000000     1.712000000     1.939000000
H    -0.478000000     1.904000000     3.002000000
C    -0.329000000     0.404000000     1.519000000
H    -0.362000000    -0.411000000     2.237000000
C    -0.208000000     0.160000000     0.135000000
H    -0.220000000    -0.872000000    -0.214000000
C    -0.225000000     1.189000000    -0.782000000
H    -0.174000000     0.954000000    -1.842000000
C    -0.352000000     2.521000000    -0.326000000
H    -0.346000000     3.305000000    -1.079000000
C    -0.454000000     2.808000000     1.058000000
C    -0.620000000     4.238000000     1.575000000
O    -0.591000000     5.242000000     0.848000000
O    -0.698000000     4.275000000     2.824000000
