14
-90.26760
C    -0.218000000     1.995000000     1.596000000
H    -0.454000000     3.048000000     1.725000000
C    -0.020000000     1.419000000     0.330000000
H    -0.084000000     1.995000000    -0.589000000
C     0.346000000     0.071000000     0.194000000
H     0.565000000    -0.398000000    -0.799000000
C     0.491000000    -0.701000000     1.351000000
H     0.711000000    -1.765000000     1.331000000
C     0.243000000    -0.216000000     2.617000000
H     0.404000000    -0.793000000     3.524000000
C    -0.028000000     1.191000000     2.728000000
C    -0.387000000     1.829000000     4.041000000
O    -1.141000000     1.235000000     4.791000000
O     0.022000000     2.948000000     4.350000000
