14
-90.10783
C    -0.377000000     1.548000000     0.207000000
H    -0.207000000     2.528000000    -0.233000000
C     0.035000000     0.358000000    -0.488000000
H     0.469000000     0.415000000    -1.483000000
C    -0.228000000    -0.850000000     0.102000000
H    -0.048000000    -1.814000000    -0.457000000
C    -0.767000000    -0.928000000     1.361000000
H    -1.062000000    -1.813000000     1.920000000
C    -0.992000000     0.261000000     2.052000000
H    -1.361000000     0.249000000     3.075000000
C    -0.849000000     1.530000000     1.498000000
C    -1.358000000     2.716000000     2.276000000
O    -1.907000000     2.517000000     3.350000000
O    -1.326000000     3.847000000     1.781000000
