14
-91.44217
C    -1.950000000     1.643000000     0.797000000
H    -2.656000000     2.468000000     0.753000000
C    -1.025000000     1.439000000    -0.234000000
H    -1.044000000     2.096000000    -1.100000000
C    -0.121000000     0.379000000    -0.109000000
H     0.560000000     0.278000000    -0.949000000
C    -0.161000000    -0.364000000     1.079000000
H     0.529000000    -1.201000000     1.151000000
C    -1.078000000    -0.085000000     2.091000000
H    -1.145000000    -0.746000000     2.952000000
C    -2.052000000     0.885000000     1.926000000
C    -3.093000000     1.149000000     3.010000000
O    -3.016000000     0.658000000     4.110000000
O    -4.066000000     1.887000000     2.709000000
