14
-85.16737
C    -1.014000000     1.312000000    -0.301000000
H    -1.374000000     2.135000000    -0.914000000
C    -0.167000000     0.377000000    -0.829000000
H     0.113000000     0.553000000    -1.864000000
C     0.311000000    -0.648000000    -0.013000000
H     0.906000000    -1.382000000    -0.444000000
C    -0.040000000    -0.756000000     1.324000000
H     0.287000000    -1.593000000     1.936000000
C    -0.907000000     0.200000000     1.824000000
H    -1.306000000     0.061000000     2.825000000
C    -1.404000000     1.190000000     1.041000000
C    -2.315000000     2.196000000     1.672000000
O    -2.499000000     2.160000000     2.892000000
O    -2.600000000     3.243000000     1.113000000
