14
-82.79016
C    -2.552000000     0.535000000     0.343000000
H    -3.014000000     1.052000000    -0.495000000
C    -1.300000000     0.004000000     0.002000000
H    -0.961000000     0.106000000    -1.025000000
C    -0.494000000    -0.507000000     1.034000000
H     0.502000000    -0.867000000     0.817000000
C    -0.981000000    -0.564000000     2.345000000
H    -0.367000000    -0.870000000     3.189000000
C    -2.257000000    -0.091000000     2.670000000
H    -2.580000000    -0.190000000     3.703000000
C    -3.100000000     0.454000000     1.650000000
C    -4.451000000     1.059000000     2.009000000
O    -4.960000000     1.117000000     3.124000000
O    -5.047000000     1.727000000     1.186000000
