14
-88.25897
C    -2.191000000     1.813000000     0.024000000
H    -2.667000000     2.779000000    -0.126000000
C    -0.905000000     1.623000000    -0.498000000
H    -0.514000000     2.441000000    -1.099000000
C    -0.225000000     0.497000000    -0.159000000
H     0.715000000     0.380000000    -0.472000000
C    -0.910000000    -0.496000000     0.549000000
H    -0.396000000    -1.431000000     0.757000000
C    -2.284000000    -0.433000000     0.787000000
H    -2.866000000    -1.238000000     1.228000000
C    -2.880000000     0.797000000     0.644000000
C    -4.329000000     1.002000000     1.137000000
O    -4.871000000     0.123000000     1.837000000
O    -4.861000000     2.062000000     0.911000000
