14
-83.40478
C    -1.684000000     1.981000000     0.380000000
H    -2.350000000     2.839000000     0.405000000
C    -0.614000000     2.021000000    -0.510000000
H    -0.466000000     2.913000000    -1.114000000
C     0.143000000     0.838000000    -0.655000000
H     1.040000000     0.900000000    -1.391000000
C    -0.091000000    -0.319000000     0.056000000
H     0.608000000    -1.151000000     0.067000000
C    -1.161000000    -0.363000000     0.998000000
H    -1.342000000    -1.339000000     1.440000000
C    -2.051000000     0.789000000     1.155000000
C    -3.250000000     0.744000000     2.111000000
O    -3.626000000    -0.310000000     2.661000000
O    -3.910000000     1.754000000     2.307000000
