14
-84.08312
C    -2.007000000     1.127000000     0.172000000
H    -2.514000000     1.991000000    -0.250000000
C    -0.681000000     0.789000000    -0.141000000
H    -0.108000000     1.400000000    -0.833000000
C    -0.161000000    -0.436000000     0.347000000
H     0.870000000    -0.697000000     0.244000000
C    -0.937000000    -1.235000000     1.160000000
H    -0.551000000    -2.111000000     1.675000000
C    -2.213000000    -0.847000000     1.561000000
H    -2.789000000    -1.387000000     2.308000000
C    -2.788000000     0.250000000     0.939000000
C    -4.246000000     0.570000000     1.209000000
O    -4.856000000    -0.052000000     2.048000000
O    -4.807000000     1.630000000     0.861000000
