14
-80.13762
C    -2.023000000     0.687000000     0.182000000
H    -2.651000000     1.390000000    -0.359000000
C    -0.731000000     0.434000000    -0.182000000
H    -0.392000000     0.923000000    -1.092000000
C     0.131000000    -0.362000000     0.519000000
H     1.135000000    -0.375000000     0.170000000
C    -0.403000000    -0.914000000     1.671000000
H     0.118000000    -1.667000000     2.258000000
C    -1.772000000    -0.806000000     1.959000000
H    -2.174000000    -1.451000000     2.736000000
C    -2.652000000    -0.066000000     1.164000000
C    -4.093000000     0.125000000     1.492000000
O    -4.424000000    -0.040000000     2.691000000
O    -4.822000000     0.702000000     0.758000000
