14
-93.36842
C    -2.675000000     0.299000000     0.257000000
H    -3.587000000     0.653000000    -0.217000000
C    -1.397000000     0.554000000    -0.214000000
H    -1.333000000     1.139000000    -1.127000000
C    -0.271000000    -0.012000000     0.361000000
H     0.753000000     0.165000000     0.016000000
C    -0.431000000    -0.839000000     1.522000000
H     0.438000000    -1.215000000     2.057000000
C    -1.673000000    -0.863000000     2.143000000
H    -1.827000000    -1.385000000     3.084000000
C    -2.837000000    -0.415000000     1.467000000
C    -4.284000000    -0.547000000     2.016000000
O    -4.373000000    -0.638000000     3.232000000
O    -5.242000000    -0.512000000     1.237000000
