14
-87.74472
C    -2.480000000     0.682000000     0.217000000
H    -3.378000000     1.006000000    -0.303000000
C    -1.278000000     0.791000000    -0.470000000
H    -1.326000000     1.318000000    -1.420000000
C    -0.080000000     0.278000000     0.076000000
H     0.882000000     0.243000000    -0.512000000
C    -0.113000000    -0.411000000     1.304000000
H     0.753000000    -0.886000000     1.757000000
C    -1.320000000    -0.530000000     2.054000000
H    -1.328000000    -1.108000000     2.975000000
C    -2.482000000     0.014000000     1.480000000
C    -3.862000000    -0.040000000     2.146000000
O    -3.903000000    -0.341000000     3.363000000
O    -4.852000000     0.563000000     1.658000000
