14
-83.65063
C    -2.336000000     0.532000000    -0.079000000
H    -2.897000000     1.163000000    -0.763000000
C    -0.966000000     0.588000000    -0.198000000
H    -0.528000000     1.147000000    -1.020000000
C    -0.105000000    -0.068000000     0.651000000
H     0.971000000     0.015000000     0.480000000
C    -0.663000000    -0.898000000     1.626000000
H     0.112000000    -1.394000000     2.205000000
C    -2.037000000    -1.124000000     1.698000000
H    -2.421000000    -1.846000000     2.414000000
C    -2.867000000    -0.200000000     0.997000000
C    -4.342000000    -0.196000000     1.331000000
O    -4.967000000    -0.950000000     2.077000000
O    -4.913000000     0.754000000     0.829000000
