14
-87.75368
C    -2.560000000     1.708000000    -0.325000000
H    -3.321000000     2.469000000    -0.478000000
C    -1.197000000     1.816000000    -0.755000000
H    -0.891000000     2.727000000    -1.261000000
C    -0.298000000     0.751000000    -0.573000000
H     0.753000000     0.832000000    -0.880000000
C    -0.746000000    -0.401000000    -0.054000000
H    -0.012000000    -1.200000000     0.014000000
C    -2.084000000    -0.558000000     0.394000000
H    -2.444000000    -1.485000000     0.834000000
C    -2.997000000     0.526000000     0.242000000
C    -4.396000000     0.426000000     0.890000000
O    -4.764000000    -0.585000000     1.385000000
O    -5.021000000     1.472000000     1.003000000
