14
-84.00323
C    -1.475000000     1.563000000     0.399000000
H    -1.722000000     2.621000000     0.391000000
C    -0.459000000     1.044000000    -0.406000000
H     0.074000000     1.709000000    -1.081000000
C    -0.123000000    -0.290000000    -0.365000000
H     0.646000000    -0.617000000    -1.067000000
C    -0.840000000    -1.123000000     0.544000000
H    -0.541000000    -2.168000000     0.546000000
C    -1.856000000    -0.700000000     1.329000000
H    -2.415000000    -1.453000000     1.879000000
C    -2.173000000     0.640000000     1.311000000
C    -3.432000000     1.024000000     2.025000000
O    -4.044000000     0.257000000     2.688000000
O    -3.803000000     2.179000000     1.804000000
