14
-89.68194
C    -1.044000000     1.190000000    -0.325000000
H    -0.999000000     2.176000000    -0.779000000
C     0.134000000     0.405000000    -0.302000000
H     0.994000000     0.645000000    -0.923000000
C     0.099000000    -0.866000000     0.221000000
H     0.945000000    -1.518000000     0.076000000
C    -1.057000000    -1.379000000     0.821000000
H    -1.152000000    -2.401000000     1.179000000
C    -2.219000000    -0.617000000     0.860000000
H    -3.144000000    -1.072000000     1.205000000
C    -2.194000000     0.725000000     0.359000000
C    -3.387000000     1.641000000     0.503000000
O    -4.375000000     1.248000000     1.039000000
O    -3.259000000     2.786000000     0.072000000
