14
-82.40236
C    -2.361000000     2.098000000     1.032000000
H    -2.625000000     2.966000000     1.631000000
C    -1.008000000     1.747000000     0.816000000
H    -0.215000000     2.297000000     1.316000000
C    -0.706000000     0.603000000     0.103000000
H     0.330000000     0.222000000     0.011000000
C    -1.670000000    -0.220000000    -0.433000000
H    -1.386000000    -1.066000000    -1.053000000
C    -2.964000000     0.040000000    -0.164000000
H    -3.599000000    -0.767000000    -0.519000000
C    -3.370000000     1.193000000     0.591000000
C    -4.810000000     1.385000000     1.075000000
O    -5.540000000     0.427000000     1.308000000
O    -5.199000000     2.468000000     1.452000000
