14
-81.02966
C    -0.726000000     1.465000000     2.203000000
H    -1.270000000     1.906000000     3.035000000
C    -0.622000000     0.101000000     2.061000000
H    -1.071000000    -0.615000000     2.745000000
C     0.073000000    -0.393000000     0.937000000
H     0.149000000    -1.448000000     0.847000000
C     0.662000000     0.507000000     0.068000000
H     1.103000000     0.095000000    -0.836000000
C     0.515000000     1.888000000     0.178000000
H     1.047000000     2.473000000    -0.568000000
C    -0.189000000     2.373000000     1.294000000
C    -0.437000000     3.888000000     1.490000000
O     0.006000000     4.657000000     0.680000000
O    -1.351000000     4.279000000     2.154000000
