14
-82.75008
C    -1.442000000     1.984000000     0.186000000
H    -0.951000000     2.948000000     0.291000000
C    -0.641000000     0.845000000     0.191000000
H     0.446000000     0.852000000     0.154000000
C    -1.199000000    -0.438000000     0.074000000
H    -0.561000000    -1.266000000     0.172000000
C    -2.587000000    -0.653000000    -0.013000000
H    -2.963000000    -1.671000000     0.051000000
C    -3.415000000     0.488000000     0.107000000
H    -4.496000000     0.404000000     0.181000000
C    -2.843000000     1.809000000     0.141000000
C    -3.785000000     2.918000000     0.424000000
O    -5.024000000     2.786000000     0.205000000
O    -3.405000000     4.084000000     0.497000000
