14
-91.33125
C    -1.675000000     2.127000000     0.289000000
H    -2.071000000     3.126000000     0.124000000
C    -0.468000000     1.773000000    -0.347000000
H    -0.052000000     2.549000000    -0.986000000
C    -0.013000000     0.501000000    -0.330000000
H     0.936000000     0.183000000    -0.774000000
C    -0.710000000    -0.448000000     0.446000000
H    -0.325000000    -1.465000000     0.448000000
C    -1.912000000    -0.183000000     1.131000000
H    -2.338000000    -0.975000000     1.743000000
C    -2.444000000     1.134000000     1.011000000
C    -3.758000000     1.618000000     1.640000000
O    -4.508000000     0.783000000     2.158000000
O    -3.981000000     2.829000000     1.656000000
