14
-94.31970
C    -1.284000000     1.843000000     0.634000000
H    -1.569000000     2.891000000     0.605000000
C    -0.200000000     1.393000000    -0.084000000
H     0.356000000     2.088000000    -0.708000000
C     0.245000000     0.080000000     0.073000000
H     1.065000000    -0.290000000    -0.594000000
C    -0.435000000    -0.779000000     0.879000000
H     0.003000000    -1.761000000     1.045000000
C    -1.643000000    -0.353000000     1.497000000
H    -2.162000000    -1.045000000     2.154000000
C    -2.033000000     0.998000000     1.478000000
C    -3.262000000     1.447000000     2.275000000
O    -4.016000000     0.608000000     2.803000000
O    -3.453000000     2.675000000     2.338000000
