14
-88.04133
C    -2.343000000     1.979000000     0.656000000
H    -2.801000000     2.925000000     0.379000000
C    -1.122000000     1.532000000     0.148000000
H    -0.695000000     2.147000000    -0.641000000
C    -0.595000000     0.267000000     0.455000000
H     0.405000000     0.016000000     0.073000000
C    -1.329000000    -0.552000000     1.309000000
H    -0.949000000    -1.552000000     1.506000000
C    -2.507000000    -0.035000000     1.896000000
H    -2.986000000    -0.695000000     2.615000000
C    -3.026000000     1.234000000     1.573000000
C    -4.108000000     1.874000000     2.362000000
O    -5.040000000     1.171000000     2.758000000
O    -4.177000000     3.085000000     2.497000000
