14
-87.49447
C    -1.741000000     2.173000000     0.730000000
H    -2.124000000     3.186000000     0.826000000
C    -0.646000000     1.994000000    -0.104000000
H    -0.286000000     2.873000000    -0.631000000
C    -0.059000000     0.737000000    -0.264000000
H     0.795000000     0.742000000    -0.912000000
C    -0.459000000    -0.286000000     0.533000000
H    -0.062000000    -1.294000000     0.444000000
C    -1.654000000    -0.127000000     1.309000000
H    -2.019000000    -1.011000000     1.825000000
C    -2.263000000     1.112000000     1.483000000
C    -3.429000000     1.151000000     2.432000000
O    -3.909000000     0.165000000     2.889000000
O    -3.770000000     2.282000000     2.759000000
