14
-84.84664
C    -2.281000000     1.963000000     0.386000000
H    -2.950000000     2.797000000     0.190000000
C    -1.160000000     1.767000000    -0.277000000
H    -0.889000000     2.441000000    -1.084000000
C    -0.468000000     0.607000000    -0.069000000
H     0.468000000     0.582000000    -0.649000000
C    -0.816000000    -0.310000000     0.872000000
H    -0.219000000    -1.210000000     0.996000000
C    -1.991000000    -0.136000000     1.535000000
H    -2.226000000    -0.853000000     2.318000000
C    -2.708000000     1.001000000     1.348000000
C    -4.056000000     1.207000000     2.090000000
O    -4.419000000     0.377000000     2.937000000
O    -4.672000000     2.246000000     1.898000000
