14
-90.48737
C    -2.018000000     1.779000000     0.430000000
H    -2.459000000     2.754000000     0.242000000
C    -0.764000000     1.436000000    -0.176000000
H    -0.351000000     2.149000000    -0.885000000
C    -0.088000000     0.224000000     0.064000000
H     0.860000000     0.006000000    -0.434000000
C    -0.685000000    -0.636000000     0.998000000
H    -0.300000000    -1.631000000     1.205000000
C    -1.818000000    -0.207000000     1.643000000
H    -2.286000000    -0.908000000     2.331000000
C    -2.531000000     0.948000000     1.353000000
C    -3.773000000     1.325000000     2.156000000
O    -4.014000000     0.658000000     3.199000000
O    -4.560000000     2.167000000     1.763000000
