14
-84.26730
C    -1.187000000     1.663000000     1.647000000
H    -1.784000000     1.670000000     2.556000000
C    -0.585000000     0.493000000     1.212000000
H    -0.807000000    -0.437000000     1.730000000
C     0.060000000     0.471000000    -0.043000000
H     0.410000000    -0.415000000    -0.422000000
C     0.203000000     1.600000000    -0.836000000
H     0.809000000     1.565000000    -1.738000000
C    -0.255000000     2.803000000    -0.331000000
H    -0.066000000     3.751000000    -0.828000000
C    -1.063000000     2.807000000     0.896000000
C    -1.798000000     4.077000000     1.262000000
O    -1.625000000     5.152000000     0.722000000
O    -2.497000000     4.126000000     2.309000000
