14
-73.59359
C    -2.060000000     1.342000000     0.159000000
H    -2.504000000     2.101000000    -0.480000000
C    -0.818000000     0.952000000    -0.196000000
H    -0.241000000     1.468000000    -0.959000000
C    -0.183000000    -0.091000000     0.524000000
H     0.827000000    -0.478000000     0.254000000
C    -0.825000000    -0.688000000     1.583000000
H    -0.341000000    -1.516000000     2.094000000
C    -2.112000000    -0.270000000     1.948000000
H    -2.512000000    -0.597000000     2.904000000
C    -2.776000000     0.699000000     1.108000000
C    -4.075000000     1.180000000     1.570000000
O    -4.726000000     0.678000000     2.447000000
O    -4.345000000     2.354000000     1.353000000
