14
-82.81985
C    -0.526000000     2.080000000     0.779000000
H    -0.832000000     3.114000000     0.637000000
C    -0.252000000     1.294000000    -0.322000000
H    -0.264000000     1.713000000    -1.325000000
C     0.086000000    -0.023000000    -0.060000000
H     0.467000000    -0.625000000    -0.865000000
C     0.040000000    -0.547000000     1.276000000
H     0.327000000    -1.562000000     1.536000000
C    -0.201000000     0.269000000     2.338000000
H    -0.172000000    -0.117000000     3.354000000
C    -0.564000000     1.583000000     2.094000000
C    -0.834000000     2.425000000     3.280000000
O    -0.519000000     1.999000000     4.388000000
O    -1.556000000     3.332000000     3.112000000
