14
-89.31320
C    -0.238000000     1.655000000     0.505000000
H    -0.495000000     2.650000000     0.150000000
C    -0.065000000     0.684000000    -0.418000000
H    -0.116000000     0.853000000    -1.491000000
C     0.221000000    -0.639000000     0.000000000
H     0.325000000    -1.410000000    -0.730000000
C     0.296000000    -0.951000000     1.336000000
H     0.382000000    -1.983000000     1.666000000
C     0.120000000     0.093000000     2.310000000
H    -0.100000000    -0.183000000     3.338000000
C    -0.144000000     1.417000000     1.855000000
C    -0.446000000     2.546000000     2.851000000
O     0.051000000     2.412000000     3.955000000
O    -1.037000000     3.542000000     2.505000000
