14
-90.05578
C    -0.960000000     2.033000000     0.903000000
H    -1.193000000     3.094000000     0.883000000
C    -0.609000000     1.391000000    -0.272000000
H    -0.762000000     1.838000000    -1.251000000
C    -0.118000000     0.120000000    -0.234000000
H     0.202000000    -0.428000000    -1.112000000
C    -0.001000000    -0.509000000     1.000000000
H     0.341000000    -1.540000000     0.981000000
C    -0.270000000     0.132000000     2.166000000
H    -0.126000000    -0.390000000     3.109000000
C    -0.790000000     1.443000000     2.175000000
C    -1.123000000     2.239000000     3.441000000
O    -0.706000000     1.778000000     4.492000000
O    -1.598000000     3.348000000     3.379000000
