14
-81.59939
C    -0.287000000     1.568000000     0.939000000
H    -0.611000000     2.598000000     0.813000000
C     0.007000000     0.691000000    -0.137000000
H     0.125000000     1.049000000    -1.157000000
C     0.453000000    -0.614000000     0.099000000
H     0.788000000    -1.227000000    -0.754000000
C     0.478000000    -1.077000000     1.398000000
H     0.744000000    -2.095000000     1.674000000
C     0.112000000    -0.223000000     2.445000000
H     0.105000000    -0.621000000     3.457000000
C    -0.277000000     1.141000000     2.220000000
C    -0.758000000     2.012000000     3.326000000
O    -0.545000000     1.749000000     4.473000000
O    -1.420000000     2.986000000     3.109000000
