14
-85.55221
C    -2.588000000     1.219000000     1.806000000
H    -3.509000000     0.729000000     2.114000000
C    -1.564000000     0.429000000     1.182000000
H    -1.752000000    -0.622000000     0.974000000
C    -0.408000000     1.024000000     0.641000000
H     0.277000000     0.399000000     0.107000000
C    -0.146000000     2.373000000     0.884000000
H     0.793000000     2.824000000     0.574000000
C    -1.174000000     3.138000000     1.509000000
H    -1.026000000     4.214000000     1.507000000
C    -2.365000000     2.590000000     2.024000000
C    -3.245000000     3.504000000     2.743000000
O    -2.892000000     4.624000000     3.039000000
O    -4.260000000     3.023000000     3.171000000
