14
-81.63845
C    -2.524000000     0.966000000     2.321000000
H    -3.132000000     0.404000000     3.026000000
C    -1.599000000     0.118000000     1.619000000
H    -1.688000000    -0.955000000     1.766000000
C    -0.685000000     0.654000000     0.781000000
H     0.029000000    -0.092000000     0.328000000
C    -0.648000000     1.983000000     0.442000000
H     0.057000000     2.352000000    -0.298000000
C    -1.563000000     2.867000000     1.117000000
H    -1.574000000     3.943000000     0.961000000
C    -2.498000000     2.342000000     2.009000000
C    -3.457000000     3.261000000     2.745000000
O    -3.029000000     4.358000000     3.031000000
O    -4.516000000     2.939000000     3.193000000
