14
-82.37466
C    -1.146000000     0.964000000     2.384000000
H    -1.249000000     0.773000000     3.449000000
C    -0.539000000    -0.036000000     1.612000000
H    -0.120000000    -0.971000000     1.975000000
C    -0.388000000     0.125000000     0.239000000
H     0.018000000    -0.737000000    -0.306000000
C    -0.750000000     1.375000000    -0.277000000
H    -0.652000000     1.538000000    -1.347000000
C    -1.303000000     2.347000000     0.480000000
H    -1.487000000     3.309000000     0.008000000
C    -1.521000000     2.195000000     1.863000000
C    -2.219000000     3.318000000     2.699000000
O    -2.478000000     4.417000000     2.257000000
O    -2.168000000     3.193000000     3.894000000
