14
-91.58898
C    -0.862000000     0.450000000     2.176000000
H    -1.261000000     0.263000000     3.170000000
C     0.041000000    -0.471000000     1.575000000
H     0.566000000    -1.245000000     2.130000000
C     0.326000000    -0.336000000     0.208000000
H     0.953000000    -0.987000000    -0.309000000
C    -0.250000000     0.745000000    -0.491000000
H    -0.141000000     0.827000000    -1.569000000
C    -1.003000000     1.705000000     0.110000000
H    -1.544000000     2.408000000    -0.519000000
C    -1.314000000     1.532000000     1.466000000
C    -2.196000000     2.617000000     2.125000000
O    -2.336000000     3.624000000     1.481000000
O    -2.714000000     2.406000000     3.241000000
