14
-77.48407
C    -0.737000000     0.889000000     2.027000000
H    -0.660000000     0.824000000     3.110000000
C    -0.017000000    -0.071000000     1.222000000
H     0.515000000    -0.812000000     1.813000000
C     0.063000000     0.065000000    -0.091000000
H     0.616000000    -0.730000000    -0.651000000
C    -0.581000000     1.086000000    -0.750000000
H    -0.466000000     1.163000000    -1.828000000
C    -1.394000000     1.925000000    -0.005000000
H    -1.960000000     2.705000000    -0.507000000
C    -1.457000000     1.886000000     1.376000000
C    -2.286000000     2.842000000     2.161000000
O    -2.639000000     3.828000000     1.596000000
O    -2.459000000     2.806000000     3.348000000
