14
-90.93423
C    -0.679000000     1.279000000     2.048000000
H    -0.816000000     1.539000000     3.095000000
C    -0.019000000     0.054000000     1.729000000
H     0.313000000    -0.546000000     2.573000000
C     0.130000000    -0.353000000     0.400000000
H     0.657000000    -1.275000000     0.131000000
C    -0.358000000     0.539000000    -0.563000000
H    -0.241000000     0.104000000    -1.552000000
C    -0.905000000     1.805000000    -0.222000000
H    -1.199000000     2.492000000    -1.011000000
C    -1.056000000     2.203000000     1.090000000
C    -1.821000000     3.448000000     1.478000000
O    -1.846000000     4.366000000     0.687000000
O    -2.306000000     3.475000000     2.598000000
