14
-78.50542
C    -0.212000000     1.017000000     2.210000000
H    -0.063000000     1.366000000     3.229000000
C     0.630000000     0.058000000     1.732000000
H     1.270000000    -0.409000000     2.475000000
C     0.529000000    -0.404000000     0.377000000
H     1.164000000    -1.238000000     0.138000000
C    -0.278000000     0.218000000    -0.540000000
H    -0.415000000    -0.271000000    -1.501000000
C    -1.103000000     1.235000000    -0.044000000
H    -1.899000000     1.636000000    -0.666000000
C    -1.105000000     1.637000000     1.311000000
C    -1.786000000     2.930000000     1.659000000
O    -2.833000000     3.199000000     1.196000000
O    -1.251000000     3.837000000     2.359000000
