14
-83.12176
C    -2.053000000     1.107000000     0.677000000
H    -2.925000000     0.844000000     1.271000000
C    -0.974000000     0.229000000     0.771000000
H    -1.087000000    -0.713000000     1.302000000
C     0.258000000     0.523000000     0.166000000
H     1.129000000    -0.100000000     0.286000000
C     0.406000000     1.640000000    -0.682000000
H     1.319000000     1.865000000    -1.227000000
C    -0.670000000     2.513000000    -0.766000000
H    -0.557000000     3.297000000    -1.510000000
C    -1.974000000     2.282000000    -0.198000000
C    -3.190000000     3.239000000    -0.440000000
O    -3.073000000     4.187000000    -1.169000000
O    -4.209000000     3.092000000     0.192000000
