14
-70.73970
C    -0.045000000     1.406000000     1.877000000
H     0.398000000     1.283000000     2.862000000
C     0.271000000     0.542000000     0.874000000
H     1.064000000    -0.182000000     1.046000000
C    -0.455000000     0.553000000    -0.326000000
H    -0.302000000    -0.148000000    -1.059000000
C    -1.460000000     1.508000000    -0.423000000
H    -2.036000000     1.454000000    -1.344000000
C    -1.844000000     2.265000000     0.661000000
H    -2.789000000     2.801000000     0.650000000
C    -1.137000000     2.182000000     1.809000000
C    -1.642000000     2.959000000     3.028000000
O    -2.495000000     3.730000000     2.883000000
O    -1.027000000     2.999000000     4.074000000
