14
-76.92717
C    -0.824000000     1.697000000     3.033000000
H    -0.602000000     1.749000000     4.096000000
C    -0.057000000     0.789000000     2.290000000
H     0.652000000     0.107000000     2.753000000
C    -0.227000000     0.736000000     0.900000000
H     0.269000000     0.035000000     0.283000000
C    -1.063000000     1.658000000     0.319000000
H    -1.156000000     1.843000000    -0.748000000
C    -1.802000000     2.605000000     1.041000000
H    -2.429000000     3.292000000     0.478000000
C    -1.644000000     2.626000000     2.488000000
C    -2.294000000     3.713000000     3.313000000
O    -3.021000000     4.447000000     2.809000000
O    -1.807000000     3.968000000     4.411000000
