14
-82.03217
C    -0.808000000     1.325000000     2.261000000
H    -0.978000000     1.418000000     3.330000000
C     0.030000000     0.295000000     1.864000000
H     0.395000000    -0.484000000     2.528000000
C     0.262000000     0.094000000     0.516000000
H     0.741000000    -0.764000000     0.022000000
C    -0.271000000     0.931000000    -0.389000000
H    -0.267000000     0.742000000    -1.459000000
C    -1.109000000     1.997000000     0.009000000
H    -1.599000000     2.643000000    -0.715000000
C    -1.370000000     2.243000000     1.410000000
C    -2.274000000     3.278000000     1.892000000
O    -2.670000000     4.129000000     1.091000000
O    -2.542000000     3.416000000     3.065000000
