14
-81.31152
C    -2.589000000     0.807000000    -0.150000000
H    -3.606000000     0.805000000     0.231000000
C    -1.599000000     0.050000000     0.453000000
H    -1.872000000    -0.580000000     1.296000000
C    -0.349000000    -0.033000000    -0.138000000
H     0.364000000    -0.629000000     0.460000000
C    -0.007000000     0.767000000    -1.210000000
H     0.925000000     0.558000000    -1.728000000
C    -0.963000000     1.586000000    -1.791000000
H    -0.601000000     2.097000000    -2.680000000
C    -2.201000000     1.695000000    -1.208000000
C    -3.262000000     2.535000000    -1.806000000
O    -3.011000000     3.341000000    -2.649000000
O    -4.379000000     2.652000000    -1.215000000
