14
-87.94326
C    -1.097000000     0.457000000     1.406000000
H    -1.353000000     0.014000000     2.365000000
C    -0.340000000    -0.284000000     0.448000000
H    -0.035000000    -1.314000000     0.616000000
C     0.067000000     0.288000000    -0.750000000
H     0.579000000    -0.313000000    -1.476000000
C    -0.284000000     1.592000000    -1.006000000
H     0.095000000     2.110000000    -1.884000000
C    -1.187000000     2.269000000    -0.174000000
H    -1.463000000     3.303000000    -0.364000000
C    -1.490000000     1.741000000     1.066000000
C    -2.352000000     2.460000000     2.061000000
O    -2.845000000     3.516000000     1.698000000
O    -2.516000000     2.095000000     3.194000000
