14
-84.95135
C    -1.219000000     1.343000000     1.543000000
H    -1.583000000     1.200000000     2.557000000
C    -0.208000000     0.481000000     1.019000000
H     0.189000000    -0.284000000     1.681000000
C     0.158000000     0.668000000    -0.309000000
H     0.939000000     0.060000000    -0.778000000
C    -0.458000000     1.666000000    -1.095000000
H    -0.164000000     1.778000000    -2.136000000
C    -1.386000000     2.525000000    -0.523000000
H    -1.649000000     3.296000000    -1.243000000
C    -1.803000000     2.387000000     0.753000000
C    -2.671000000     3.413000000     1.355000000
O    -3.106000000     4.316000000     0.652000000
O    -3.140000000     3.293000000     2.477000000
