14
-85.93555
C    -0.934000000     1.080000000     1.615000000
H    -0.945000000     1.072000000     2.702000000
C    -0.165000000     0.137000000     0.931000000
H     0.481000000    -0.515000000     1.513000000
C    -0.232000000     0.131000000    -0.446000000
H     0.336000000    -0.576000000    -1.158000000
C    -1.118000000     0.959000000    -1.112000000
H    -1.172000000     0.951000000    -2.198000000
C    -1.938000000     1.845000000    -0.367000000
H    -2.663000000     2.340000000    -1.007000000
C    -1.790000000     1.964000000     1.031000000
C    -2.598000000     2.914000000     1.834000000
O    -3.429000000     3.643000000     1.267000000
O    -2.355000000     3.096000000     3.001000000
