14
-83.19931
C    -0.547000000     0.560000000     1.515000000
H    -0.300000000     0.547000000     2.573000000
C     0.104000000    -0.234000000     0.555000000
H     0.855000000    -0.967000000     0.841000000
C    -0.232000000    -0.077000000    -0.768000000
H     0.325000000    -0.752000000    -1.456000000
C    -1.199000000     0.847000000    -1.145000000
H    -1.417000000     0.971000000    -2.203000000
C    -1.908000000     1.622000000    -0.217000000
H    -2.648000000     2.330000000    -0.583000000
C    -1.614000000     1.472000000     1.182000000
C    -2.437000000     2.333000000     2.105000000
O    -3.504000000     2.742000000     1.764000000
O    -1.851000000     2.884000000     3.022000000
