14
-90.07338
C    -0.614000000     0.223000000     1.682000000
H    -0.423000000     0.062000000     2.740000000
C     0.142000000    -0.459000000     0.709000000
H     0.886000000    -1.165000000     1.070000000
C     0.017000000    -0.291000000    -0.638000000
H     0.635000000    -0.800000000    -1.413000000
C    -0.936000000     0.573000000    -1.098000000
H    -1.077000000     0.669000000    -2.172000000
C    -1.828000000     1.147000000    -0.178000000
H    -2.621000000     1.820000000    -0.491000000
C    -1.618000000     1.007000000     1.199000000
C    -2.377000000     1.941000000     2.199000000
O    -3.403000000     2.518000000     1.814000000
O    -1.952000000     2.151000000     3.344000000
