14
-89.17966
C    -0.436000000     0.581000000     1.504000000
H    -0.063000000     0.504000000     2.522000000
C    -0.071000000    -0.238000000     0.425000000
H     0.662000000    -1.020000000     0.609000000
C    -0.459000000     0.116000000    -0.852000000
H    -0.098000000    -0.419000000    -1.686000000
C    -1.270000000     1.242000000    -1.104000000
H    -1.518000000     1.566000000    -2.111000000
C    -1.798000000     1.930000000    -0.028000000
H    -2.403000000     2.810000000    -0.228000000
C    -1.420000000     1.590000000     1.321000000
C    -1.883000000     2.362000000     2.582000000
O    -2.825000000     3.141000000     2.448000000
O    -1.143000000     2.409000000     3.543000000
