14
-80.00520
C    -0.835000000     0.385000000     2.184000000
H    -0.881000000     0.354000000     3.270000000
C     0.161000000    -0.241000000     1.418000000
H     0.904000000    -0.745000000     2.032000000
C     0.183000000    -0.254000000     0.040000000
H     0.831000000    -0.906000000    -0.590000000
C    -0.844000000     0.400000000    -0.632000000
H    -0.843000000     0.342000000    -1.718000000
C    -1.804000000     1.157000000     0.087000000
H    -2.613000000     1.673000000    -0.422000000
C    -1.797000000     1.108000000     1.531000000
C    -2.968000000     1.683000000     2.276000000
O    -3.611000000     2.505000000     1.668000000
O    -2.995000000     1.739000000     3.495000000
