14
-92.76010
C    -1.256000000     0.447000000     2.408000000
H    -1.357000000     0.174000000     3.455000000
C    -0.149000000    -0.079000000     1.687000000
H     0.635000000    -0.665000000     2.159000000
C    -0.039000000     0.180000000     0.327000000
H     0.772000000    -0.150000000    -0.268000000
C    -1.005000000     0.930000000    -0.303000000
H    -0.900000000     1.071000000    -1.375000000
C    -2.024000000     1.528000000     0.420000000
H    -2.835000000     2.029000000    -0.104000000
C    -2.204000000     1.290000000     1.803000000
C    -3.345000000     1.982000000     2.564000000
O    -4.285000000     2.390000000     1.933000000
O    -3.264000000     2.011000000     3.780000000
