14
-85.06451
C    -1.518000000     0.811000000     2.694000000
H    -1.438000000     0.686000000     3.771000000
C    -0.634000000     0.027000000     1.948000000
H     0.157000000    -0.591000000     2.365000000
C    -0.638000000     0.122000000     0.552000000
H     0.060000000    -0.410000000    -0.045000000
C    -1.564000000     0.962000000    -0.075000000
H    -1.563000000     1.057000000    -1.158000000
C    -2.398000000     1.771000000     0.720000000
H    -3.029000000     2.565000000     0.330000000
C    -2.483000000     1.599000000     2.073000000
C    -3.473000000     2.427000000     2.867000000
O    -4.221000000     3.179000000     2.346000000
O    -3.479000000     2.397000000     4.104000000
