14
-83.22671
C    -1.357000000     0.544000000     2.135000000
H    -1.476000000     0.498000000     3.214000000
C    -0.187000000     0.061000000     1.559000000
H     0.542000000    -0.568000000     2.063000000
C     0.046000000     0.300000000     0.214000000
H     0.896000000    -0.132000000    -0.235000000
C    -0.879000000     0.952000000    -0.525000000
H    -0.762000000     1.007000000    -1.605000000
C    -2.126000000     1.401000000     0.009000000
H    -2.932000000     1.814000000    -0.592000000
C    -2.337000000     1.161000000     1.378000000
C    -3.640000000     1.693000000     2.004000000
O    -4.609000000     2.027000000     1.356000000
O    -3.796000000     1.706000000     3.199000000
