14
-84.19689
C    -2.010000000     0.920000000     1.810000000
H    -2.192000000     1.133000000     2.861000000
C    -0.758000000     0.291000000     1.440000000
H     0.012000000     0.054000000     2.169000000
C    -0.486000000     0.051000000     0.107000000
H     0.464000000    -0.432000000    -0.058000000
C    -1.354000000     0.390000000    -0.948000000
H    -1.140000000     0.167000000    -1.990000000
C    -2.572000000     1.002000000    -0.592000000
H    -3.339000000     1.316000000    -1.296000000
C    -2.911000000     1.252000000     0.821000000
C    -4.192000000     1.929000000     1.193000000
O    -4.919000000     2.412000000     0.362000000
O    -4.423000000     2.163000000     2.348000000
