14
-75.55675
C    -1.319000000     1.309000000     1.817000000
H    -1.568000000     1.578000000     2.840000000
C    -0.136000000     0.583000000     1.576000000
H     0.368000000     0.139000000     2.431000000
C     0.188000000     0.274000000     0.294000000
H     1.083000000    -0.397000000     0.134000000
C    -0.651000000     0.614000000    -0.800000000
H    -0.434000000     0.263000000    -1.805000000
C    -1.856000000     1.247000000    -0.470000000
H    -2.493000000     1.468000000    -1.322000000
C    -2.218000000     1.588000000     0.821000000
C    -3.494000000     2.367000000     1.114000000
O    -4.316000000     2.514000000     0.227000000
O    -3.519000000     3.074000000     2.022000000
