14
-88.77186
C    -2.257000000     0.698000000     1.828000000
H    -2.691000000     0.867000000     2.810000000
C    -0.975000000     0.216000000     1.789000000
H    -0.401000000    -0.128000000     2.646000000
C    -0.374000000    -0.076000000     0.563000000
H     0.572000000    -0.623000000     0.425000000
C    -1.036000000     0.175000000    -0.636000000
H    -0.455000000     0.001000000    -1.539000000
C    -2.210000000     0.878000000    -0.597000000
H    -2.733000000     1.138000000    -1.514000000
C    -2.863000000     1.115000000     0.615000000
C    -4.188000000     1.936000000     0.673000000
O    -4.446000000     2.607000000    -0.336000000
O    -4.775000000     2.065000000     1.717000000
