14
-86.68202
C    -2.727000000     0.045000000     1.260000000
H    -3.170000000    -0.085000000     2.244000000
C    -1.663000000    -0.723000000     0.778000000
H    -1.295000000    -1.540000000     1.393000000
C    -1.000000000    -0.292000000    -0.388000000
H    -0.085000000    -0.838000000    -0.713000000
C    -1.378000000     0.849000000    -1.072000000
H    -0.838000000     1.221000000    -1.939000000
C    -2.484000000     1.532000000    -0.567000000
H    -2.749000000     2.481000000    -1.027000000
C    -3.138000000     1.174000000     0.617000000
C    -4.173000000     2.032000000     1.144000000
O    -4.823000000     2.854000000     0.469000000
O    -4.370000000     1.964000000     2.338000000
