14
-82.49141
C    -2.899000000    -0.314000000     1.249000000
H    -3.477000000    -0.870000000     1.982000000
C    -1.701000000    -0.853000000     1.013000000
H    -1.397000000    -1.775000000     1.502000000
C    -0.861000000    -0.147000000     0.116000000
H     0.214000000    -0.468000000     0.102000000
C    -1.269000000     0.971000000    -0.543000000
H    -0.562000000     1.517000000    -1.162000000
C    -2.597000000     1.448000000    -0.387000000
H    -3.045000000     2.302000000    -0.888000000
C    -3.411000000     0.835000000     0.605000000
C    -4.735000000     1.405000000     0.981000000
O    -5.186000000     2.441000000     0.509000000
O    -5.197000000     1.010000000     2.039000000
