14
-78.93990
C    -2.628000000    -0.312000000     1.501000000
H    -3.308000000    -0.972000000     2.033000000
C    -1.353000000    -0.668000000     1.158000000
H    -0.864000000    -1.482000000     1.687000000
C    -0.639000000     0.130000000     0.276000000
H     0.374000000    -0.176000000    -0.091000000
C    -1.236000000     1.351000000    -0.213000000
H    -0.654000000     1.998000000    -0.865000000
C    -2.529000000     1.732000000     0.171000000
H    -2.943000000     2.724000000     0.011000000
C    -3.195000000     0.874000000     1.071000000
C    -4.614000000     1.104000000     1.367000000
O    -5.183000000     2.032000000     0.821000000
O    -5.184000000     0.693000000     2.391000000
