14
-85.36495
C    -2.475000000     0.185000000     1.572000000
H    -3.075000000    -0.212000000     2.386000000
C    -1.460000000    -0.591000000     1.208000000
H    -1.177000000    -1.529000000     1.677000000
C    -0.627000000    -0.128000000     0.181000000
H     0.190000000    -0.597000000    -0.123000000
C    -0.872000000     1.140000000    -0.429000000
H    -0.234000000     1.474000000    -1.243000000
C    -1.998000000     1.877000000    -0.107000000
H    -2.383000000     2.715000000    -0.682000000
C    -2.763000000     1.431000000     0.946000000
C    -3.899000000     2.363000000     1.398000000
O    -4.199000000     3.354000000     0.717000000
O    -4.453000000     2.141000000     2.459000000
