14
-81.60062
C    -2.411000000     0.999000000     1.169000000
H    -3.123000000     0.477000000     1.803000000
C    -1.492000000     0.257000000     0.447000000
H    -1.421000000    -0.815000000     0.608000000
C    -0.507000000     0.813000000    -0.337000000
H     0.210000000     0.145000000    -0.725000000
C    -0.553000000     2.119000000    -0.569000000
H     0.273000000     2.563000000    -1.117000000
C    -1.452000000     3.013000000     0.119000000
H    -1.455000000     4.085000000    -0.064000000
C    -2.395000000     2.440000000     1.037000000
C    -3.413000000     3.291000000     1.692000000
O    -3.854000000     4.334000000     1.197000000
O    -3.836000000     2.927000000     2.757000000
