14
-79.85970
C    -3.008000000     0.502000000     2.035000000
H    -3.413000000     0.231000000     3.006000000
C    -1.975000000    -0.225000000     1.444000000
H    -1.691000000    -1.133000000     1.968000000
C    -1.467000000     0.219000000     0.217000000
H    -0.651000000    -0.320000000    -0.278000000
C    -1.950000000     1.404000000    -0.340000000
H    -1.518000000     1.663000000    -1.303000000
C    -2.952000000     2.181000000     0.299000000
H    -3.281000000     3.163000000    -0.031000000
C    -3.478000000     1.696000000     1.496000000
C    -4.594000000     2.509000000     2.153000000
O    -4.944000000     3.554000000     1.629000000
O    -4.841000000     2.409000000     3.299000000
