14
-88.87255
C    -1.752000000    -0.600000000     1.046000000
H    -2.417000000    -1.379000000     1.409000000
C    -0.543000000    -0.944000000     0.500000000
H    -0.087000000    -1.916000000     0.671000000
C     0.182000000     0.097000000    -0.090000000
H     1.185000000    -0.119000000    -0.536000000
C    -0.282000000     1.413000000    -0.151000000
H     0.331000000     2.221000000    -0.544000000
C    -1.531000000     1.678000000     0.365000000
H    -1.946000000     2.678000000     0.268000000
C    -2.357000000     0.679000000     0.960000000
C    -3.716000000     0.966000000     1.656000000
O    -4.258000000     2.040000000     1.462000000
O    -4.109000000     0.189000000     2.483000000
