14
-91.91540
C    -2.234000000    -0.633000000     1.762000000
H    -2.636000000    -1.244000000     2.566000000
C    -0.969000000    -0.909000000     1.329000000
H    -0.395000000    -1.751000000     1.706000000
C    -0.352000000    -0.056000000     0.420000000
H     0.659000000    -0.173000000     0.232000000
C    -1.049000000     1.082000000    -0.038000000
H    -0.551000000     1.775000000    -0.712000000
C    -2.325000000     1.327000000     0.395000000
H    -2.850000000     2.250000000     0.163000000
C    -2.974000000     0.435000000     1.252000000
C    -4.366000000     0.680000000     1.796000000
O    -4.968000000     1.697000000     1.403000000
O    -4.871000000    -0.004000000     2.703000000
