14
-88.40757
C    -2.594000000    -0.901000000     1.996000000
H    -3.310000000    -1.618000000     2.390000000
C    -1.228000000    -1.223000000     1.750000000
H    -0.836000000    -2.159000000     2.139000000
C    -0.358000000    -0.359000000     1.032000000
H     0.654000000    -0.625000000     0.885000000
C    -0.840000000     0.797000000     0.494000000
H    -0.176000000     1.568000000     0.110000000
C    -2.161000000     1.173000000     0.757000000
H    -2.543000000     2.128000000     0.404000000
C    -3.084000000     0.321000000     1.407000000
C    -4.472000000     0.812000000     1.786000000
O    -4.788000000     1.983000000     1.674000000
O    -5.306000000    -0.016000000     2.147000000
