14
-88.77241
C    -2.189000000    -1.101000000     1.360000000
H    -2.086000000    -2.090000000     1.799000000
C    -1.228000000    -0.703000000     0.411000000
H    -0.377000000    -1.364000000     0.262000000
C    -1.143000000     0.599000000    -0.004000000
H    -0.359000000     0.849000000    -0.730000000
C    -2.138000000     1.515000000     0.359000000
H    -1.971000000     2.562000000     0.117000000
C    -3.143000000     1.099000000     1.258000000
H    -3.858000000     1.801000000     1.680000000
C    -3.131000000    -0.201000000     1.808000000
C    -4.008000000    -0.577000000     2.986000000
O    -4.873000000     0.182000000     3.388000000
O    -3.840000000    -1.652000000     3.506000000
