14
-89.25715
C    -2.690000000    -0.704000000     1.155000000
H    -3.313000000    -1.528000000     1.492000000
C    -1.390000000    -1.103000000     0.818000000
H    -1.101000000    -2.085000000     1.182000000
C    -0.488000000    -0.176000000     0.296000000
H     0.526000000    -0.539000000     0.006000000
C    -0.801000000     1.156000000     0.256000000
H    -0.068000000     1.893000000    -0.062000000
C    -2.119000000     1.497000000     0.553000000
H    -2.371000000     2.555000000     0.547000000
C    -3.104000000     0.655000000     1.041000000
C    -4.517000000     1.160000000     1.309000000
O    -4.620000000     2.386000000     1.554000000
O    -5.503000000     0.416000000     1.403000000
