14
-88.44115
C    -1.865000000     0.669000000    -0.438000000
H    -2.881000000     0.796000000    -0.072000000
C    -0.973000000    -0.181000000     0.252000000
H    -1.191000000    -0.767000000     1.141000000
C     0.314000000    -0.352000000    -0.242000000
H     0.965000000    -0.963000000     0.256000000
C     0.806000000     0.454000000    -1.302000000
H     1.809000000     0.284000000    -1.685000000
C    -0.070000000     1.298000000    -1.946000000
H     0.242000000     1.850000000    -2.828000000
C    -1.450000000     1.331000000    -1.610000000
C    -2.390000000     2.304000000    -2.342000000
O    -1.880000000     3.065000000    -3.159000000
O    -3.541000000     2.214000000    -2.121000000
