14
-89.06138
C    -2.562000000     0.138000000     1.304000000
H    -3.245000000    -0.518000000     1.837000000
C    -1.460000000    -0.456000000     0.627000000
H    -1.255000000    -1.515000000     0.766000000
C    -0.557000000     0.247000000    -0.154000000
H     0.183000000    -0.299000000    -0.619000000
C    -0.723000000     1.607000000    -0.271000000
H     0.022000000     2.192000000    -0.804000000
C    -1.795000000     2.215000000     0.385000000
H    -1.952000000     3.291000000     0.415000000
C    -2.775000000     1.543000000     1.125000000
C    -3.931000000     2.170000000     1.902000000
O    -4.160000000     3.381000000     1.802000000
O    -4.583000000     1.508000000     2.697000000
