14
-87.48136
C    -2.183000000    -0.892000000     2.409000000
H    -2.418000000    -1.098000000     3.450000000
C    -1.032000000    -1.407000000     1.894000000
H    -0.351000000    -2.006000000     2.494000000
C    -0.634000000    -1.094000000     0.585000000
H     0.357000000    -1.403000000     0.292000000
C    -1.442000000    -0.303000000    -0.199000000
H    -1.225000000    -0.015000000    -1.225000000
C    -2.666000000     0.205000000     0.374000000
H    -3.416000000     0.780000000    -0.164000000
C    -3.113000000    -0.139000000     1.660000000
C    -4.326000000     0.442000000     2.354000000
O    -5.087000000     1.183000000     1.773000000
O    -4.444000000     0.293000000     3.557000000
