14
-92.48727
C    -2.411000000    -0.887000000     2.672000000
H    -2.822000000    -1.340000000     3.570000000
C    -1.058000000    -0.558000000     2.478000000
H    -0.317000000    -0.827000000     3.227000000
C    -0.625000000    -0.009000000     1.263000000
H     0.462000000     0.250000000     1.170000000
C    -1.564000000     0.263000000     0.289000000
H    -1.435000000     0.785000000    -0.656000000
C    -2.906000000     0.016000000     0.513000000
H    -3.676000000     0.311000000    -0.195000000
C    -3.336000000    -0.587000000     1.713000000
C    -4.792000000    -0.901000000     1.900000000
O    -5.612000000    -0.315000000     1.143000000
O    -5.206000000    -1.708000000     2.754000000
