161
-3035.71979
C    -0.117000000     1.091000000     0.999000000
H    -0.124000000     2.023000000     1.559000000
C     0.506000000     1.131000000    -0.241000000
H     0.956000000     2.062000000    -0.573000000
C     0.639000000     0.010000000    -1.008000000
C     1.457000000     0.131000000    -2.268000000
H     2.341000000     0.724000000    -2.024000000
H     1.662000000    -0.846000000    -2.710000000
H     0.986000000     0.787000000    -3.004000000
C     0.137000000    -1.191000000    -0.615000000
H     0.188000000    -2.010000000    -1.327000000
C    -0.643000000    -1.246000000     0.555000000
H    -1.223000000    -2.110000000     0.869000000
C    -0.765000000    -0.146000000     1.379000000
C    -1.704000000    -0.188000000     2.524000000
O    -2.521000000    -1.072000000     2.673000000
O    -1.773000000     0.854000000     3.208000000
O     1.290000000     2.756000000     4.571000000
H     1.680000000     3.293000000     3.882000000
H     1.779000000     2.988000000     5.361000000
O    -1.662000000     4.635000000     0.619000000
H    -1.862000000     4.182000000     1.437000000
H    -1.569000000     5.554000000     0.870000000
O    -1.590000000    -7.663000000     0.517000000
H    -1.541000000    -6.752000000     0.230000000
H    -0.791000000    -8.065000000     0.176000000
O    -3.525000000     2.497000000     0.292000000
H    -2.983000000     2.184000000     1.016000000
H    -2.963000000     3.111000000    -0.180000000
O     4.163000000    -1.622000000     3.036000000
H     3.435000000    -1.488000000     3.642000000
H     3.765000000    -2.036000000     2.270000000
O    -1.765000000     5.814000000    -1.922000000
H    -2.081000000     5.294000000    -1.184000000
H    -2.505000000     6.376000000    -2.153000000
O    -2.494000000    -3.470000000     3.887000000
H    -3.438000000    -3.567000000     4.012000000
H    -2.393000000    -2.609000000     3.482000000
O     1.475000000     4.541000000     2.788000000
H     1.857000000     5.111000000     2.121000000
H     0.901000000     5.115000000     3.294000000
O     3.062000000    -2.370000000     0.505000000
H     3.213000000    -3.277000000     0.239000000
H     3.117000000    -1.870000000    -0.310000000
O     1.156000000    -0.305000000     7.156000000
H     0.486000000     0.377000000     7.211000000
H     0.790000000    -1.041000000     7.645000000
O     4.982000000    -3.627000000    -4.611000000
H     4.969000000    -4.519000000    -4.265000000
H     5.003000000    -3.739000000    -5.562000000
O     1.107000000    -2.772000000     2.872000000
H     1.105000000    -2.105000000     3.559000000
H     1.077000000    -2.274000000     2.055000000
O    -1.818000000     3.454000000     3.359000000
H    -2.013000000     2.525000000     3.237000000
H    -0.873000000     3.484000000     3.504000000
O    -3.664000000    -4.080000000     0.797000000
H    -3.363000000    -4.172000000     1.702000000
H    -2.903000000    -4.318000000     0.267000000
O    -4.216000000     4.759000000     3.900000000
H    -4.808000000     4.034000000     4.101000000
H    -3.413000000     4.335000000     3.597000000
O    -0.843000000     4.012000000    -3.528000000
H    -1.608000000     3.440000000    -3.460000000
H    -1.031000000     4.736000000    -2.931000000
O     1.407000000    -5.366000000    -0.940000000
H     1.792000000    -5.501000000    -1.806000000
H     2.151000000    -5.403000000    -0.339000000
O     0.227000000    -2.296000000    -6.894000000
H    -0.396000000    -1.961000000    -6.249000000
H     1.086000000    -2.143000000    -6.501000000
O    -0.934000000    -4.911000000    -4.330000000
H    -0.231000000    -5.558000000    -4.276000000
H    -0.603000000    -4.155000000    -3.844000000
O     3.047000000     3.428000000    -6.286000000
H     3.419000000     3.383000000    -7.167000000
H     3.691000000     2.986000000    -5.732000000
O     0.661000000     6.680000000    -2.051000000
H     1.110000000     6.177000000    -2.730000000
H    -0.204000000     6.275000000    -1.984000000
O     2.980000000     2.170000000     1.303000000
H     2.456000000     2.949000000     1.117000000
H     2.432000000     1.439000000     1.017000000
O    -4.135000000    -1.266000000     0.336000000
H    -4.362000000    -2.178000000     0.516000000
H    -3.371000000    -1.096000000     0.888000000
O    -0.276000000    -3.538000000     6.124000000
H    -0.817000000    -3.370000000     5.352000000
H     0.446000000    -4.075000000     5.797000000
O    -3.004000000     0.233000000    -5.011000000
H    -3.859000000    -0.197000000    -5.019000000
H    -2.665000000     0.075000000    -4.130000000
O     2.771000000    -1.659000000    -6.461000000
H     3.075000000    -0.878000000    -6.923000000
H     3.533000000    -1.955000000    -5.964000000
O     4.521000000     4.349000000    -3.622000000
H     5.468000000     4.208000000    -3.596000000
H     4.400000000     5.225000000    -3.257000000
O     5.147000000     0.691000000     2.104000000
H     4.429000000     1.210000000     1.741000000
H     4.715000000     0.030000000     2.645000000
O    -3.406000000     0.720000000     8.200000000
H    -4.160000000     1.186000000     8.560000000
H    -3.303000000     1.077000000     7.318000000
O    -2.061000000     1.383000000    -7.290000000
H    -1.152000000     1.611000000    -7.093000000
H    -2.319000000     0.792000000    -6.584000000
O    -6.211000000    -3.035000000    -0.874000000
H    -6.107000000    -3.923000000    -1.215000000
H    -5.326000000    -2.671000000    -0.879000000
O    -4.920000000     0.707000000    -1.272000000
H    -4.783000000     1.465000000    -0.705000000
H    -4.551000000    -0.028000000    -0.783000000
O    -3.976000000     0.937000000     4.881000000
H    -3.193000000     0.900000000     4.331000000
H    -4.151000000     0.024000000     5.110000000
O    -0.737000000    -1.890000000    -4.153000000
H    -1.526000000    -2.428000000    -4.206000000
H    -0.921000000    -1.262000000    -3.455000000
O    -1.294000000    -5.164000000    -0.814000000
H    -0.370000000    -5.332000000    -0.629000000
H    -1.304000000    -4.296000000    -1.217000000
O    -6.883000000    -1.533000000     2.282000000
H    -7.263000000    -1.946000000     1.507000000
H    -7.249000000    -0.649000000     2.287000000
O    -2.323000000    -3.134000000    -2.024000000
H    -3.256000000    -3.342000000    -2.070000000
H    -2.295000000    -2.187000000    -1.883000000
O    -4.632000000    -1.617000000     3.927000000
H    -5.220000000    -1.793000000     3.192000000
H    -3.877000000    -1.183000000     3.530000000
O     1.997000000     4.813000000    -0.240000000
H     1.714000000     5.645000000    -0.620000000
H     2.015000000     4.206000000    -0.980000000
O     1.961000000    -0.057000000     4.611000000
H     1.689000000     0.850000000     4.472000000
H     1.818000000    -0.209000000     5.546000000
O     6.162000000    -0.685000000    -0.215000000
H     5.603000000    -0.762000000     0.558000000
H     7.036000000    -0.920000000     0.096000000
O    -2.588000000    -0.126000000    -2.415000000
H    -3.428000000     0.238000000    -2.134000000
H    -1.935000000     0.477000000    -2.062000000
O     1.876000000    -3.749000000    -3.935000000
H     1.699000000    -2.814000000    -4.037000000
H     2.812000000    -3.796000000    -3.741000000
O    -6.012000000     2.388000000     3.554000000
H    -5.481000000     1.898000000     4.181000000
H    -6.768000000     1.825000000     3.388000000
O    -0.821000000     1.885000000     6.172000000
H    -1.246000000     1.392000000     5.470000000
H     0.049000000     2.088000000     5.829000000
O    -5.715000000    -1.524000000     6.537000000
H    -6.425000000    -2.121000000     6.301000000
H    -5.206000000    -1.428000000     5.732000000
O     2.179000000     3.483000000    -2.691000000
H     1.443000000     3.453000000    -3.302000000
H     2.954000000     3.381000000    -3.244000000
O     6.023000000     1.866000000    -1.158000000
H     5.207000000     2.139000000    -0.739000000
H     5.930000000     0.920000000    -1.268000000
