161
-3083.51826
C    -1.326000000    -0.458000000    -0.457000000
H    -2.190000000    -0.878000000    -0.965000000
C    -0.279000000    -0.013000000    -1.258000000
H    -0.459000000     0.021000000    -2.330000000
C     0.979000000     0.240000000    -0.741000000
C     2.128000000     0.776000000    -1.484000000
H     2.719000000     1.506000000    -0.928000000
H     2.787000000    -0.006000000    -1.867000000
H     1.759000000     1.309000000    -2.363000000
C     1.114000000     0.135000000     0.664000000
H     2.069000000     0.252000000     1.169000000
C     0.017000000    -0.155000000     1.463000000
H     0.286000000    -0.177000000     2.516000000
C    -1.259000000    -0.401000000     0.901000000
C    -2.446000000    -0.670000000     1.682000000
O    -2.437000000    -0.306000000     2.863000000
O    -3.454000000    -1.167000000     1.136000000
O     0.555000000     3.027000000     5.350000000
H     0.258000000     3.932000000     5.450000000
H    -0.249000000     2.525000000     5.212000000
O    -4.086000000    -5.752000000    -1.332000000
H    -4.772000000    -6.407000000    -1.199000000
H    -4.277000000    -5.071000000    -0.688000000
O    -3.070000000     0.867000000    -2.996000000
H    -2.646000000     1.561000000    -3.501000000
H    -3.587000000     1.331000000    -2.338000000
O    -3.069000000    -4.960000000     3.975000000
H    -3.298000000    -4.142000000     4.416000000
H    -3.904000000    -5.305000000     3.660000000
O     3.994000000     2.143000000    -5.234000000
H     4.493000000     2.139000000    -4.418000000
H     4.322000000     1.386000000    -5.720000000
O     2.550000000     3.153000000     1.857000000
H     2.560000000     3.738000000     2.614000000
H     2.225000000     3.696000000     1.139000000
O     3.507000000     6.056000000    -0.487000000
H     4.147000000     6.150000000    -1.193000000
H     4.021000000     5.756000000     0.263000000
O    -5.464000000    -2.401000000     2.891000000
H    -4.871000000    -1.863000000     2.367000000
H    -6.332000000    -2.032000000     2.726000000
O     1.330000000    -4.831000000     1.504000000
H     1.037000000    -5.727000000     1.334000000
H     0.622000000    -4.441000000     2.017000000
O    -6.637000000     0.434000000     0.489000000
H    -6.871000000    -0.194000000    -0.195000000
H    -5.690000000     0.542000000     0.401000000
O    -0.990000000     2.832000000    -5.129000000
H    -0.213000000     2.273000000    -5.153000000
H    -1.165000000     3.038000000    -6.048000000
O    -0.329000000    -3.079000000    -2.476000000
H    -0.757000000    -3.591000000    -1.790000000
H    -1.027000000    -2.889000000    -3.103000000
O    -1.231000000    -3.911000000     2.011000000
H    -1.774000000    -4.421000000     2.612000000
H    -0.825000000    -3.243000000     2.563000000
O     4.659000000    -1.545000000     2.698000000
H     4.282000000    -1.788000000     1.853000000
H     4.409000000    -0.629000000     2.817000000
O    -1.789000000    -0.263000000     7.305000000
H    -1.771000000    -0.335000000     6.351000000
H    -2.619000000    -0.666000000     7.560000000
O    -6.007000000    -3.387000000    -2.597000000
H    -5.930000000    -2.880000000    -3.405000000
H    -5.352000000    -3.006000000    -2.012000000
O    -1.451000000     4.407000000    -2.836000000
H    -0.642000000     4.907000000    -2.730000000
H    -1.276000000     3.820000000    -3.571000000
O    -1.068000000    -4.978000000    -0.569000000
H    -2.007000000    -5.118000000    -0.686000000
H    -0.966000000    -4.802000000     0.367000000
O     7.813000000    -0.655000000    -2.890000000
H     7.389000000    -0.896000000    -3.713000000
H     7.266000000    -1.053000000    -2.213000000
O     0.974000000     5.810000000    -2.498000000
H     1.686000000     5.285000000    -2.864000000
H     0.991000000     5.618000000    -1.561000000
O    -2.082000000    -2.076000000     4.750000000
H    -2.002000000    -1.578000000     3.937000000
H    -1.181000000    -2.299000000     4.984000000
O     1.743000000     1.286000000     7.099000000
H     1.502000000     2.025000000     6.541000000
H     1.072000000     1.272000000     7.781000000
O    -3.576000000     4.334000000     2.672000000
H    -3.654000000     3.381000000     2.722000000
H    -4.361000000     4.662000000     3.111000000
O    -6.560000000     3.106000000     1.478000000
H    -5.718000000     2.705000000     1.692000000
H    -7.042000000     2.419000000     1.018000000
O     2.988000000    -2.178000000     0.752000000
H     2.376000000    -1.532000000     0.398000000
H     2.548000000    -3.019000000     0.623000000
O     4.172000000    -2.101000000    -2.905000000
H     4.041000000    -2.131000000    -3.853000000
H     3.317000000    -2.324000000    -2.537000000
O     0.085000000     5.279000000     0.420000000
H    -0.670000000     5.716000000     0.814000000
H    -0.278000000     4.493000000     0.012000000
O     3.414000000    -4.013000000     3.440000000
H     3.706000000    -3.109000000     3.322000000
H     2.812000000    -4.167000000     2.712000000
O    -1.233000000     2.964000000    -0.318000000
H    -0.634000000     2.225000000    -0.425000000
H    -1.445000000     3.232000000    -1.212000000
O     3.676000000    -2.622000000    -5.368000000
H     4.034000000    -2.086000000    -6.074000000
H     3.093000000    -3.240000000    -5.809000000
O    -7.500000000    -1.627000000    -1.004000000
H    -8.382000000    -1.994000000    -0.952000000
H    -7.048000000    -2.180000000    -1.642000000
O    -4.367000000    -3.886000000     0.489000000
H    -5.069000000    -4.160000000     1.080000000
H    -4.122000000    -3.013000000     0.797000000
O    -4.666000000    -1.160000000    -1.434000000
H    -4.120000000    -0.571000000    -1.954000000
H    -4.250000000    -1.172000000    -0.571000000
O    -4.091000000     1.827000000     5.649000000
H    -4.877000000     1.282000000     5.691000000
H    -4.372000000     2.679000000     5.984000000
O    -7.395000000     0.004000000     3.251000000
H    -8.249000000    -0.397000000     3.089000000
H    -7.085000000     0.265000000     2.384000000
O     1.085000000     1.288000000    -5.111000000
H     1.797000000     1.052000000    -5.705000000
H     0.632000000     0.462000000    -4.941000000
O     0.191000000    -1.541000000    -5.242000000
H     0.625000000    -2.394000000    -5.216000000
H    -0.666000000    -1.696000000    -4.847000000
O     6.012000000    -1.839000000    -0.708000000
H     5.763000000    -2.451000000    -0.015000000
H     5.201000000    -1.685000000    -1.193000000
O    -1.569000000     1.552000000     4.862000000
H    -1.621000000     1.057000000     4.045000000
H    -2.467000000     1.559000000     5.196000000
O     2.007000000    -0.479000000     4.806000000
H     1.662000000    -0.051000000     5.589000000
H     2.581000000     0.176000000     4.408000000
O    -4.241000000     1.517000000     2.887000000
H    -4.312000000     1.726000000     3.818000000
H    -3.686000000     0.738000000     2.858000000
O    -4.035000000     1.927000000    -0.552000000
H    -3.227000000     2.146000000    -0.089000000
H    -4.665000000     2.585000000    -0.260000000
O     2.726000000     4.060000000    -3.561000000
H     2.806000000     3.299000000    -4.136000000
H     3.254000000     3.837000000    -2.794000000
O     5.211000000     0.800000000    -3.252000000
H     5.473000000     1.091000000    -2.378000000
H     4.758000000    -0.030000000    -3.102000000
O    -2.501000000    -1.994000000    -3.977000000
H    -3.298000000    -2.503000000    -4.129000000
H    -2.812000000    -1.162000000    -3.622000000
O     0.534000000    -2.651000000     3.691000000
H     1.185000000    -1.951000000     3.730000000
H     0.399000000    -2.903000000     4.605000000
O     3.944000000     1.115000000     3.247000000
H     4.862000000     1.305000000     3.053000000
H     3.454000000     1.779000000     2.761000000
O    -4.602000000    -1.770000000     5.616000000
H    -5.289000000    -2.038000000     5.007000000
H    -3.801000000    -1.779000000     5.092000000
