161
-3039.27247
C    -0.923000000    -0.784000000    -0.855000000
H    -1.411000000    -1.459000000    -1.554000000
C     0.385000000    -0.318000000    -1.135000000
H     0.698000000    -0.510000000    -2.159000000
C     1.128000000     0.353000000    -0.227000000
C     2.534000000     0.667000000    -0.753000000
H     2.590000000     1.238000000    -1.682000000
H     3.094000000     1.159000000     0.045000000
H     2.924000000    -0.312000000    -1.042000000
C     0.641000000     0.732000000     0.958000000
H     1.242000000     1.403000000     1.567000000
C    -0.635000000     0.333000000     1.248000000
H    -1.169000000     0.730000000     2.108000000
C    -1.442000000    -0.483000000     0.414000000
C    -2.817000000    -0.862000000     0.900000000
O    -3.245000000    -0.372000000     1.949000000
O    -3.593000000    -1.510000000     0.210000000
O    -4.787000000    -4.972000000    -3.479000000
H    -4.361000000    -4.890000000    -4.332000000
H    -4.075000000    -4.877000000    -2.846000000
O     2.650000000     4.721000000    -3.351000000
H     2.979000000     4.177000000    -2.635000000
H     1.708000000     4.555000000    -3.364000000
O    -0.188000000     0.897000000    -5.903000000
H    -0.295000000     0.053000000    -6.340000000
H     0.563000000     0.772000000    -5.322000000
O    -7.169000000    -4.782000000    -0.449000000
H    -7.554000000    -4.297000000    -1.180000000
H    -6.829000000    -4.104000000     0.135000000
O    -7.706000000     0.969000000    -0.424000000
H    -7.670000000     1.747000000    -0.981000000
H    -6.834000000     0.582000000    -0.498000000
O     5.941000000     4.804000000    -2.485000000
H     6.734000000     5.088000000    -2.031000000
H     5.228000000     5.031000000    -1.888000000
O     3.678000000     4.324000000    -0.634000000
H     4.556000000     4.009000000    -0.420000000
H     3.317000000     4.614000000     0.204000000
O     6.232000000     0.298000000    -0.191000000
H     5.933000000     1.000000000    -0.768000000
H     7.185000000     0.304000000    -0.281000000
O    -5.621000000    -1.457000000     2.702000000
H    -4.867000000    -0.988000000     2.343000000
H    -5.269000000    -1.937000000     3.452000000
O    -4.227000000    -1.877000000     6.040000000
H    -4.052000000    -2.534000000     5.365000000
H    -5.062000000    -2.145000000     6.423000000
O     0.388000000    -4.360000000     0.062000000
H     0.632000000    -5.268000000    -0.118000000
H     0.848000000    -3.852000000    -0.606000000
O    -6.167000000    -2.411000000     0.315000000
H    -6.118000000    -2.191000000     1.245000000
H    -5.374000000    -2.033000000    -0.063000000
O    -6.573000000    -0.559000000    -3.804000000
H    -6.447000000    -0.310000000    -2.888000000
H    -6.599000000    -1.516000000    -3.790000000
O     2.382000000    -3.259000000    -5.139000000
H     2.266000000    -3.002000000    -6.053000000
H     2.805000000    -4.116000000    -5.183000000
O    -1.415000000    -3.581000000    -3.524000000
H    -1.823000000    -3.317000000    -2.699000000
H    -1.243000000    -4.517000000    -3.418000000
O    -3.610000000     1.336000000    -3.357000000
H    -3.956000000     0.818000000    -4.084000000
H    -3.906000000     2.228000000    -3.537000000
O     5.078000000     0.278000000     2.173000000
H     5.576000000     0.382000000     1.362000000
H     4.717000000    -0.607000000     2.120000000
O     3.824000000     5.813000000     1.751000000
H     3.687000000     6.718000000     2.032000000
H     2.978000000     5.388000000     1.892000000
O     3.111000000     2.036000000     5.440000000
H     3.214000000     2.853000000     5.927000000
H     2.766000000     1.416000000     6.084000000
O     1.575000000     4.297000000     1.790000000
H     2.211000000     3.727000000     2.222000000
H     0.811000000     4.283000000     2.366000000
O    -4.553000000     1.734000000     2.511000000
H    -4.238000000     0.904000000     2.155000000
H    -5.250000000     2.003000000     1.912000000
O    -3.556000000     4.053000000     3.453000000
H    -4.006000000     3.975000000     4.293000000
H    -3.932000000     3.357000000     2.914000000
O     4.384000000    -4.400000000    -0.626000000
H     5.276000000    -4.059000000    -0.561000000
H     3.828000000    -3.621000000    -0.622000000
O     3.769000000     2.424000000     2.701000000
H     3.836000000     2.499000000     3.653000000
H     4.070000000     1.536000000     2.509000000
O     3.464000000    -1.569000000    -3.312000000
H     3.143000000    -2.303000000    -3.835000000
H     4.391000000    -1.498000000    -3.543000000
O    -0.115000000     4.480000000    -0.654000000
H    -0.388000000     3.606000000    -0.934000000
H     0.563000000     4.321000000     0.002000000
O    -1.759000000    -4.306000000     1.877000000
H    -2.278000000    -3.558000000     2.174000000
H    -1.791000000    -4.255000000     0.921000000
O     0.604000000     2.903000000    -3.689000000
H     0.996000000     2.038000000    -3.812000000
H    -0.040000000     2.777000000    -2.991000000
O     6.109000000    -1.027000000    -3.293000000
H     6.386000000    -0.966000000    -2.379000000
H     6.593000000    -1.776000000    -3.640000000
O     1.877000000     0.576000000    -4.512000000
H     2.405000000    -0.059000000    -4.029000000
H     2.204000000     0.526000000    -5.410000000
O    -3.056000000    -3.789000000    -1.434000000
H    -3.357000000    -4.570000000    -0.970000000
H    -3.063000000    -3.099000000    -0.770000000
O     1.346000000    -2.327000000     2.151000000
H     0.939000000    -2.982000000     1.583000000
H     0.839000000    -1.530000000     1.998000000
O    -5.050000000     0.302000000    -1.070000000
H    -4.357000000     0.748000000    -1.558000000
H    -4.585000000    -0.291000000    -0.480000000
O     5.687000000     4.046000000     1.239000000
H     5.124000000     3.345000000     1.566000000
H     5.237000000     4.852000000     1.491000000
O    -6.440000000     1.301000000     5.316000000
H    -6.169000000     1.216000000     4.402000000
H    -7.345000000     0.990000000     5.327000000
O    -0.206000000     2.799000000     5.877000000
H    -0.190000000     1.902000000     6.209000000
H    -0.942000000     3.210000000     6.332000000
O     3.647000000    -1.252000000     5.528000000
H     3.608000000    -0.437000000     5.028000000
H     4.431000000    -1.163000000     6.070000000
O     2.036000000    -2.642000000    -1.324000000
H     1.512000000    -1.870000000    -1.110000000
H     2.725000000    -2.312000000    -1.901000000
O    -0.627000000     4.176000000     3.472000000
H    -0.699000000     3.548000000     4.191000000
H    -1.515000000     4.239000000     3.120000000
O    -8.468000000    -0.512000000     3.280000000
H    -7.719000000    -1.058000000     3.041000000
H    -8.838000000    -0.940000000     4.053000000
O    -1.183000000     2.125000000    -1.741000000
H    -1.185000000     1.392000000    -1.125000000
H    -1.805000000     1.867000000    -2.421000000
O     5.373000000     1.992000000    -2.086000000
H     5.790000000     2.792000000    -2.405000000
H     4.696000000     1.799000000    -2.735000000
O    -0.354000000    -2.249000000    -5.545000000
H    -0.923000000    -2.598000000    -4.859000000
H     0.530000000    -2.499000000    -5.274000000
O    -4.454000000    -3.748000000     4.110000000
H    -4.069000000    -4.298000000     3.427000000
H    -5.284000000    -4.175000000     4.321000000
O     4.012000000    -2.226000000     2.947000000
H     3.133000000    -2.409000000     2.614000000
H     3.941000000    -2.352000000     3.893000000
O     6.467000000    -2.515000000     0.006000000
H     6.868000000    -2.504000000     0.875000000
H     6.251000000    -1.599000000    -0.169000000
O     0.032000000    -3.477000000     4.858000000
H    -0.290000000    -2.641000000     4.522000000
H    -0.728000000    -3.873000000     5.284000000
O    -2.250000000    -1.275000000     4.295000000
H    -2.457000000    -0.590000000     3.659000000
H    -3.039000000    -1.351000000     4.831000000
