161
-3044.87456
C    -1.025000000    -0.346000000    -1.036000000
H    -1.701000000    -0.539000000    -1.866000000
C     0.294000000     0.138000000    -1.289000000
H     0.745000000     0.313000000    -2.262000000
C     1.197000000     0.303000000    -0.268000000
C     2.498000000     0.986000000    -0.566000000
H     3.111000000     0.953000000     0.337000000
H     2.933000000     0.481000000    -1.431000000
H     2.336000000     2.004000000    -0.927000000
C     0.764000000     0.059000000     1.007000000
H     1.462000000     0.215000000     1.826000000
C    -0.597000000    -0.315000000     1.308000000
H    -0.890000000    -0.417000000     2.350000000
C    -1.449000000    -0.618000000     0.281000000
C    -2.860000000    -0.969000000     0.714000000
O    -3.128000000    -0.828000000     1.889000000
O    -3.691000000    -1.412000000    -0.072000000
O    -0.740000000     1.976000000     5.119000000
H    -0.510000000     2.003000000     6.047000000
H    -1.301000000     1.205000000     5.033000000
O    -4.441000000    -5.347000000    -1.066000000
H    -5.168000000    -5.244000000    -1.681000000
H    -4.259000000    -6.286000000    -1.065000000
O     0.091000000     1.651000000    -4.702000000
H     0.309000000     0.722000000    -4.772000000
H     0.893000000     2.106000000    -4.957000000
O    -7.055000000     0.981000000     0.553000000
H    -6.971000000     1.865000000     0.196000000
H    -7.471000000     0.478000000    -0.148000000
O     5.110000000     4.343000000    -1.065000000
H     6.032000000     4.460000000    -0.840000000
H     4.670000000     4.230000000    -0.222000000
O     3.367000000     6.523000000    -0.723000000
H     2.992000000     6.651000000     0.148000000
H     4.121000000     5.952000000    -0.579000000
O     6.908000000    -0.883000000    -0.709000000
H     6.560000000    -0.030000000    -0.969000000
H     7.758000000    -0.685000000    -0.316000000
O    -5.113000000    -2.307000000     3.030000000
H    -4.467000000    -1.618000000     2.872000000
H    -5.459000000    -2.514000000     2.162000000
O    -4.080000000    -2.463000000     5.591000000
H    -4.556000000    -2.550000000     4.764000000
H    -4.315000000    -3.248000000     6.086000000
O    -6.235000000    -2.264000000     0.590000000
H    -6.834000000    -2.796000000     0.067000000
H    -5.488000000    -2.106000000     0.013000000
O     3.752000000     2.587000000    -5.609000000
H     4.424000000     2.074000000    -5.159000000
H     3.473000000     3.236000000    -4.963000000
O    -6.990000000    -1.989000000    -3.647000000
H    -6.033000000    -1.983000000    -3.674000000
H    -7.205000000    -2.568000000    -2.916000000
O    -1.963000000    -3.144000000    -3.486000000
H    -2.186000000    -3.990000000    -3.873000000
H    -2.038000000    -3.286000000    -2.542000000
O    -5.675000000     1.300000000    -2.988000000
H    -5.309000000     1.989000000    -3.543000000
H    -6.570000000     1.587000000    -2.807000000
O     5.510000000    -0.132000000     1.668000000
H     5.964000000    -0.602000000     0.968000000
H     4.785000000    -0.707000000     1.912000000
O     6.036000000     1.643000000    -1.147000000
H     6.492000000     2.484000000    -1.172000000
H     5.186000000     1.843000000    -0.755000000
O     1.976000000     3.766000000     1.525000000
H     1.887000000     3.360000000     2.387000000
H     2.851000000     3.514000000     1.231000000
O    -5.047000000     0.921000000     2.129000000
H    -4.417000000     0.217000000     1.975000000
H    -5.838000000     0.640000000     1.668000000
O     2.363000000    -2.422000000     6.200000000
H     2.686000000    -1.548000000     5.983000000
H     2.131000000    -2.808000000     5.355000000
O    -3.482000000     2.948000000     1.614000000
H    -3.804000000     3.179000000     0.743000000
H    -4.126000000     2.324000000     1.950000000
O     2.752000000    -4.686000000    -1.519000000
H     3.363000000    -4.163000000    -0.999000000
H     1.949000000    -4.166000000    -1.539000000
O     4.582000000     3.153000000     1.371000000
H     4.989000000     3.835000000     1.904000000
H     5.000000000     2.342000000     1.660000000
O     3.578000000    -1.916000000    -3.860000000
H     3.520000000    -2.510000000    -4.609000000
H     4.194000000    -1.239000000    -4.138000000
O     0.741000000     4.541000000    -1.153000000
H    -0.046000000     4.002000000    -1.073000000
H     1.118000000     4.548000000    -0.273000000
O    -1.824000000    -3.528000000     2.325000000
H    -2.146000000    -2.807000000     1.785000000
H    -1.320000000    -4.074000000     1.721000000
O    -1.987000000     2.597000000    -3.199000000
H    -1.429000000     2.730000000    -2.432000000
H    -1.485000000     2.007000000    -3.761000000
O     0.419000000     6.962000000    -2.430000000
H     0.018000000     7.547000000    -1.788000000
H     0.818000000     6.268000000    -1.905000000
O     6.419000000    -0.741000000    -4.159000000
H     7.096000000    -0.263000000    -4.638000000
H     6.705000000    -1.654000000    -4.187000000
O     1.272000000    -0.736000000    -4.759000000
H     1.890000000    -1.125000000    -4.141000000
H     1.625000000    -0.955000000    -5.622000000
O    -2.397000000    -3.687000000    -0.608000000
H    -2.900000000    -4.500000000    -0.575000000
H    -3.060000000    -2.996000000    -0.634000000
O     0.710000000    -2.602000000     3.523000000
H     0.266000000    -2.276000000     4.305000000
H     0.006000000    -2.947000000     2.974000000
O    -3.994000000     0.455000000    -5.302000000
H    -4.321000000     0.512000000    -4.404000000
H    -3.377000000    -0.277000000    -5.286000000
O    -4.573000000    -1.265000000    -2.520000000
H    -5.173000000    -0.523000000    -2.594000000
H    -4.045000000    -1.070000000    -1.746000000
O    -5.035000000     1.551000000     5.362000000
H    -4.327000000     1.034000000     4.980000000
H    -5.654000000     1.678000000     4.643000000
O     1.746000000     1.889000000     3.975000000
H     0.807000000     1.970000000     4.145000000
H     2.162000000     2.178000000     4.788000000
O     3.521000000    -0.111000000     5.085000000
H     3.207000000     0.764000000     4.857000000
H     4.228000000     0.044000000     5.711000000
O     0.331000000    -3.095000000    -0.742000000
H    -0.610000000    -3.130000000    -0.916000000
H     0.503000000    -2.175000000    -0.541000000
O    -2.182000000     3.733000000     3.724000000
H    -1.652000000     3.002000000     4.043000000
H    -2.684000000     3.365000000     2.997000000
O    -7.493000000    -1.454000000     4.221000000
H    -6.694000000    -1.686000000     3.748000000
H    -7.275000000    -1.595000000     5.143000000
O    -1.047000000     2.714000000    -0.397000000
H    -0.759000000     1.848000000    -0.110000000
H    -1.342000000     3.146000000     0.405000000
O     3.433000000     4.400000000    -3.584000000
H     2.651000000     4.331000000    -3.037000000
H     4.149000000     4.119000000    -3.015000000
O     5.745000000     1.809000000    -3.763000000
H     6.285000000     1.687000000    -2.982000000
H     5.827000000     0.985000000    -4.243000000
O    -1.678000000    -1.216000000    -5.598000000
H    -0.787000000    -1.133000000    -5.259000000
H    -2.080000000    -1.894000000    -5.055000000
O    -3.856000000    -4.830000000     3.381000000
H    -3.038000000    -4.534000000     2.983000000
H    -4.521000000    -4.237000000     3.031000000
O     3.333000000    -1.553000000     2.785000000
H     2.472000000    -1.802000000     2.449000000
H     3.174000000    -1.316000000     3.698000000
O     3.709000000    -2.394000000    -0.671000000
H     3.684000000    -1.904000000    -1.493000000
H     3.997000000    -1.754000000    -0.019000000
O    -0.788000000    -2.158000000     5.795000000
H    -0.394000000    -1.683000000     6.528000000
H    -1.543000000    -2.605000000     6.178000000
O    -2.769000000    -0.061000000     4.450000000
H    -2.795000000    -0.213000000     3.505000000
H    -2.824000000    -0.935000000     4.835000000
