161
-3054.83063
C     0.658000000     0.799000000    -1.072000000
H     1.163000000     1.431000000    -1.798000000
C     1.270000000     0.421000000     0.090000000
H     2.305000000     0.707000000     0.259000000
C     0.590000000    -0.266000000     1.079000000
C     1.237000000    -0.955000000     2.251000000
H     0.677000000    -1.742000000     2.761000000
H     2.105000000    -1.444000000     1.804000000
H     1.578000000    -0.267000000     3.028000000
C    -0.744000000    -0.548000000     0.823000000
H    -1.305000000    -1.202000000     1.487000000
C    -1.398000000    -0.049000000    -0.288000000
H    -2.421000000    -0.408000000    -0.374000000
C    -0.713000000     0.624000000    -1.260000000
C    -1.484000000     0.931000000    -2.564000000
O    -2.655000000     0.586000000    -2.737000000
O    -0.856000000     1.382000000    -3.491000000
O    -1.218000000     1.234000000    -6.702000000
H    -1.251000000     1.360000000    -7.650000000
H    -0.981000000     2.093000000    -6.354000000
O    -1.095000000    -1.790000000     5.196000000
H    -1.505000000    -1.053000000     4.743000000
H    -1.078000000    -2.492000000     4.545000000
O    -7.247000000     1.973000000    -3.394000000
H    -6.932000000     2.873000000    -3.311000000
H    -6.687000000     1.468000000    -2.804000000
O     4.488000000     0.465000000     1.611000000
H     5.187000000     0.706000000     2.218000000
H     3.698000000     0.855000000     1.988000000
O    -1.174000000    -4.300000000     3.952000000
H    -0.397000000    -4.587000000     3.472000000
H    -1.898000000    -4.444000000     3.344000000
O    -2.872000000    -4.571000000     1.967000000
H    -2.795000000    -4.923000000     1.080000000
H    -3.737000000    -4.163000000     1.989000000
O     0.636000000     2.867000000    -5.113000000
H     1.313000000     3.171000000    -4.509000000
H     0.195000000     2.159000000    -4.644000000
O     3.681000000     2.687000000    -0.348000000
H     3.886000000     3.380000000     0.279000000
H     3.964000000     1.881000000     0.084000000
O     0.857000000     3.982000000     2.239000000
H     0.691000000     4.088000000     3.176000000
H     0.184000000     3.369000000     1.945000000
O    -4.314000000    -1.526000000    -2.247000000
H    -3.714000000    -0.813000000    -2.463000000
H    -5.157000000    -1.096000000    -2.105000000
O     3.010000000     5.141000000     1.191000000
H     2.761000000     5.491000000     0.335000000
H     2.228000000     4.685000000     1.501000000
O    -5.435000000    -1.267000000    -5.213000000
H    -4.578000000    -0.913000000    -5.452000000
H    -6.060000000    -0.720000000    -5.688000000
O     1.730000000     2.736000000    -7.544000000
H     1.237000000     2.831000000    -6.729000000
H     2.518000000     2.254000000    -7.292000000
O    -2.472000000    -3.615000000    -2.499000000
H    -2.562000000    -3.735000000    -1.554000000
H    -3.236000000    -3.095000000    -2.748000000
O     1.068000000    -0.351000000     5.999000000
H     0.581000000     0.363000000     5.586000000
H     0.447000000    -1.079000000     6.029000000
O     0.699000000    -0.721000000    -7.442000000
H     0.105000000    -0.270000000    -6.842000000
H     0.126000000    -1.081000000    -8.119000000
O     4.882000000    -1.894000000     0.101000000
H     4.599000000    -2.309000000     0.916000000
H     4.995000000    -0.971000000     0.328000000
O    -5.128000000    -0.014000000     4.399000000
H    -5.288000000     0.925000000     4.495000000
H    -4.181000000    -0.085000000     4.279000000
O     1.939000000    -5.234000000    -0.812000000
H     1.260000000    -4.586000000    -0.999000000
H     1.779000000    -5.937000000    -1.442000000
O     5.647000000    -0.074000000    -2.589000000
H     5.854000000    -0.713000000    -3.270000000
H     5.630000000    -0.585000000    -1.779000000
O    -5.857000000     4.582000000    -4.232000000
H    -6.009000000     4.802000000    -5.151000000
H    -5.206000000     3.882000000    -4.257000000
O     0.370000000    -3.031000000    -0.427000000
H     0.302000000    -2.800000000     0.500000000
H    -0.520000000    -2.927000000    -0.765000000
O    -1.952000000     3.782000000    -3.848000000
H    -1.330000000     3.063000000    -3.736000000
H    -2.768000000     3.355000000    -4.108000000
O    -0.294000000     2.315000000     5.577000000
H     0.513000000     2.822000000     5.666000000
H    -0.983000000     2.973000000     5.491000000
O    -7.138000000     1.213000000     0.157000000
H    -6.352000000     1.265000000    -0.388000000
H    -7.256000000     0.276000000     0.317000000
O    -2.577000000     6.144000000    -4.721000000
H    -2.451000000     5.252000000    -4.400000000
H    -3.508000000     6.190000000    -4.941000000
O    -2.812000000    -0.536000000    -5.373000000
H    -2.313000000    -0.400000000    -4.568000000
H    -2.417000000     0.065000000    -6.005000000
O    -6.172000000    -0.975000000     1.903000000
H    -5.903000000    -0.629000000     2.754000000
H    -5.749000000    -1.832000000     1.848000000
O    -1.773000000     4.833000000    -0.538000000
H    -1.665000000     4.445000000    -1.406000000
H    -2.534000000     5.407000000    -0.625000000
O     2.945000000     2.481000000     2.702000000
H     3.273000000     3.101000000     3.354000000
H     2.265000000     2.964000000     2.233000000
O    -4.569000000     1.338000000    -1.025000000
H    -3.854000000     0.998000000    -1.564000000
H    -4.703000000     2.231000000    -1.341000000
O    -1.445000000     2.627000000     1.714000000
H    -1.834000000     3.378000000     1.266000000
H    -1.717000000     1.870000000     1.194000000
O     2.267000000     5.838000000    -1.544000000
H     1.915000000     6.429000000    -2.210000000
H     2.244000000     4.974000000    -1.955000000
O     5.328000000     4.671000000    -1.769000000
H     4.501000000     4.197000000    -1.859000000
H     5.768000000     4.246000000    -1.033000000
O    -4.210000000     2.153000000    -4.378000000
H    -3.559000000     1.516000000    -4.085000000
H    -4.176000000     2.110000000    -5.333000000
O     0.467000000    -0.711000000    -4.521000000
H     1.265000000    -0.328000000    -4.156000000
H    -0.232000000    -0.121000000    -4.238000000
O    -2.040000000     0.628000000     3.815000000
H    -1.611000000     1.287000000     4.361000000
H    -1.675000000     0.768000000     2.941000000
O     0.313000000    -3.942000000     7.006000000
H    -0.290000000    -4.227000000     7.693000000
H    -0.253000000    -3.718000000     6.268000000
O     2.976000000    -0.280000000    -3.300000000
H     3.887000000    -0.171000000    -3.027000000
H     2.699000000    -1.100000000    -2.889000000
O     1.504000000    -2.824000000    -5.416000000
H     1.082000000    -2.159000000    -4.873000000
H     1.535000000    -2.436000000    -6.291000000
O    -6.891000000    -1.396000000    -2.752000000
H    -7.795000000    -1.305000000    -3.056000000
H    -6.401000000    -1.652000000    -3.533000000
O     2.765000000    -2.472000000    -1.842000000
H     3.325000000    -2.200000000    -1.115000000
H     1.980000000    -2.823000000    -1.421000000
O     3.583000000     0.326000000     6.553000000
H     2.772000000    -0.156000000     6.392000000
H     4.159000000     0.072000000     5.832000000
O     2.706000000     3.451000000    -2.826000000
H     2.782000000     3.002000000    -1.984000000
H     3.297000000     2.972000000    -3.407000000
O    -4.512000000    -3.684000000    -0.365000000
H    -4.545000000    -2.844000000    -0.823000000
H    -5.062000000    -4.265000000    -0.890000000
O     5.676000000    -1.400000000     4.942000000
H     5.428000000    -1.997000000     4.236000000
H     6.052000000    -0.642000000     4.494000000
O     5.293000000    -2.918000000     2.684000000
H     6.077000000    -3.444000000     2.527000000
H     4.684000000    -3.518000000     3.115000000
O     1.575000000    -4.876000000     3.130000000
H     1.704000000    -5.707000000     2.672000000
H     2.305000000    -4.827000000     3.747000000
