161
-3055.52027
C     0.056000000    -0.622000000     1.295000000
H    -0.039000000    -1.037000000     2.295000000
C    -0.905000000     0.268000000     0.874000000
H    -1.671000000     0.523000000     1.603000000
C    -0.884000000     0.796000000    -0.401000000
C    -1.836000000     1.919000000    -0.813000000
H    -1.509000000     2.838000000    -0.323000000
H    -1.861000000     2.001000000    -1.901000000
H    -2.783000000     1.609000000    -0.365000000
C     0.161000000     0.385000000    -1.259000000
H     0.307000000     0.877000000    -2.217000000
C     1.128000000    -0.504000000    -0.798000000
H     1.906000000    -0.670000000    -1.539000000
C     1.077000000    -1.039000000     0.444000000
C     2.034000000    -2.104000000     0.938000000
O     2.981000000    -2.392000000     0.233000000
O     1.838000000    -2.847000000     1.940000000
O    -0.366000000     5.813000000    -2.613000000
H    -1.043000000     5.967000000    -3.271000000
H     0.458000000     5.899000000    -3.092000000
O    -0.695000000    -4.658000000     0.723000000
H    -0.559000000    -3.908000000     1.302000000
H     0.056000000    -4.642000000     0.130000000
O     4.644000000    -0.530000000     1.206000000
H     3.949000000    -1.158000000     1.008000000
H     5.439000000    -1.060000000     1.254000000
O     1.143000000    -8.033000000     2.369000000
H     1.667000000    -7.232000000     2.395000000
H     0.482000000    -7.865000000     1.698000000
O     1.355000000    -4.407000000    -1.094000000
H     2.000000000    -3.782000000    -0.763000000
H     1.313000000    -4.234000000    -2.034000000
O     0.378000000     3.407000000     4.088000000
H     0.037000000     3.976000000     3.398000000
H    -0.391000000     3.175000000     4.609000000
O    -5.781000000     1.902000000     2.548000000
H    -6.418000000     1.774000000     1.845000000
H    -5.381000000     1.040000000     2.667000000
O     3.008000000     3.789000000     2.422000000
H     2.103000000     3.542000000     2.613000000
H     3.107000000     4.657000000     2.813000000
O    -3.024000000    -2.058000000     0.694000000
H    -2.822000000    -2.711000000     1.364000000
H    -2.353000000    -1.385000000     0.806000000
O     0.877000000    -5.682000000     4.850000000
H     0.120000000    -6.209000000     4.595000000
H     1.486000000    -5.767000000     4.117000000
O     2.186000000    -2.670000000     4.623000000
H     1.718000000    -2.594000000     3.791000000
H     3.044000000    -3.019000000     4.384000000
O     2.275000000    -7.233000000    -1.513000000
H     1.991000000    -6.390000000    -1.160000000
H     1.461000000    -7.686000000    -1.733000000
O    -1.404000000    -0.448000000     4.683000000
H    -1.359000000    -0.077000000     5.564000000
H    -0.662000000    -0.056000000     4.221000000
O     0.632000000     4.683000000    -0.497000000
H    -0.013000000     4.659000000     0.210000000
H     0.255000000     5.278000000    -1.145000000
O     4.710000000    -4.291000000     3.817000000
H     5.593000000    -4.427000000     4.162000000
H     4.188000000    -4.990000000     4.211000000
O    -3.941000000    -2.011000000    -2.025000000
H    -3.767000000    -1.079000000    -2.152000000
H    -3.797000000    -2.157000000    -1.090000000
O     1.279000000    -1.279000000     6.873000000
H     2.166000000    -1.258000000     7.232000000
H     1.398000000    -1.513000000     5.953000000
O    -3.857000000     3.224000000    -3.583000000
H    -4.464000000     3.925000000    -3.346000000
H    -2.990000000     3.582000000    -3.391000000
O    -1.025000000     5.116000000     2.413000000
H    -1.193000000     5.607000000     3.217000000
H    -1.861000000     5.127000000     1.947000000
O     5.037000000     1.726000000     2.544000000
H     4.226000000     2.228000000     2.461000000
H     4.820000000     0.861000000     2.196000000
O    -3.549000000     0.610000000    -4.432000000
H    -2.941000000     0.422000000    -5.147000000
H    -3.530000000     1.563000000    -4.345000000
O    -1.502000000    -0.295000000    -6.273000000
H    -1.711000000    -1.212000000    -6.455000000
H    -0.630000000    -0.322000000    -5.879000000
O     6.206000000    -3.070000000    -1.884000000
H     6.520000000    -3.744000000    -2.486000000
H     5.275000000    -2.983000000    -2.086000000
O     2.509000000     2.717000000    -1.219000000
H     3.094000000     2.973000000    -0.506000000
H     1.834000000     3.396000000    -1.230000000
O     1.167000000    -4.284000000     6.993000000
H     1.133000000    -5.015000000     6.375000000
H     1.412000000    -3.529000000     6.459000000
O     2.371000000    -5.461000000     2.628000000
H     2.130000000    -4.542000000     2.511000000
H     2.960000000    -5.648000000     1.897000000
O     3.591000000    -0.430000000    -3.848000000
H     4.540000000    -0.319000000    -3.788000000
H     3.236000000     0.439000000    -3.664000000
O     1.279000000     2.269000000    -5.916000000
H     1.865000000     1.965000000    -6.610000000
H     0.522000000     2.626000000    -6.381000000
O     1.898000000     2.203000000     5.970000000
H     2.434000000     1.501000000     5.599000000
H     1.551000000     2.667000000     5.208000000
O     3.289000000    -2.665000000    -2.497000000
H     3.639000000    -1.907000000    -2.965000000
H     3.009000000    -2.316000000    -1.651000000
O    -4.721000000    -0.635000000     2.477000000
H    -5.471000000    -1.189000000     2.693000000
H    -4.270000000    -1.104000000     1.775000000
O    -5.896000000     0.819000000    -2.927000000
H    -6.449000000     1.178000000    -3.621000000
H    -5.019000000     0.795000000    -3.309000000
O     5.911000000     1.082000000    -3.411000000
H     5.917000000     0.947000000    -2.463000000
H     5.296000000     1.804000000    -3.545000000
O    -0.633000000    -7.476000000     0.492000000
H    -0.560000000    -6.521000000     0.495000000
H    -1.574000000    -7.644000000     0.444000000
O     1.635000000    -1.432000000    -5.665000000
H     1.928000000    -1.054000000    -6.494000000
H     2.295000000    -1.155000000    -5.029000000
O     5.467000000     1.264000000    -0.751000000
H     5.287000000     2.033000000    -0.210000000
H     5.184000000     0.523000000    -0.215000000
O    -6.684000000     1.895000000    -0.094000000
H    -7.581000000     2.021000000    -0.405000000
H    -6.254000000     1.405000000    -0.794000000
O    -3.773000000     5.377000000     1.440000000
H    -4.496000000     5.412000000     2.066000000
H    -4.167000000     5.031000000     0.639000000
O    -2.307000000    -3.036000000     3.383000000
H    -1.748000000    -3.766000000     3.650000000
H    -2.286000000    -2.433000000     4.126000000
O    -4.246000000     0.950000000     5.584000000
H    -4.874000000     0.274000000     5.331000000
H    -3.390000000     0.568000000     5.389000000
O    -5.496000000     4.276000000    -0.672000000
H    -6.234000000     4.792000000    -0.996000000
H    -5.900000000     3.520000000    -0.247000000
O     6.762000000    -5.566000000    -0.696000000
H     6.005000000    -5.112000000    -0.326000000
H     7.378000000    -4.866000000    -0.913000000
O     0.155000000    -2.310000000    -3.491000000
H     0.280000000    -1.540000000    -2.938000000
H     0.577000000    -2.082000000    -4.319000000
O     3.257000000     2.311000000    -3.763000000
H     2.995000000     2.599000000    -2.888000000
H     2.441000000     2.292000000    -4.263000000
O     3.243000000    -4.247000000    -4.639000000
H     3.179000000    -3.791000000    -3.800000000
H     2.497000000    -3.924000000    -5.144000000
O     6.644000000    -2.318000000     0.760000000
H     7.545000000    -2.487000000     1.036000000
H     6.577000000    -2.731000000    -0.101000000
O    -1.921000000    -3.791000000    -2.833000000
H    -1.286000000    -3.103000000    -3.033000000
H    -2.658000000    -3.328000000    -2.436000000
O     4.332000000    -4.462000000     0.982000000
H     4.583000000    -4.249000000     1.881000000
H     3.831000000    -3.702000000     0.686000000
