161
-3069.03040
C     0.387000000     1.248000000    -0.751000000
H     0.760000000     2.166000000    -1.198000000
C     1.244000000     0.412000000    -0.055000000
H     2.294000000     0.687000000    -0.098000000
C     0.790000000    -0.698000000     0.595000000
C     1.732000000    -1.563000000     1.418000000
H     2.681000000    -1.036000000     1.533000000
H     1.388000000    -1.773000000     2.433000000
H     1.838000000    -2.432000000     0.765000000
C    -0.520000000    -1.076000000     0.564000000
H    -0.865000000    -1.940000000     1.125000000
C    -1.400000000    -0.241000000    -0.074000000
H    -2.469000000    -0.430000000    -0.132000000
C    -0.954000000     0.890000000    -0.781000000
C    -2.006000000     1.708000000    -1.540000000
O    -3.214000000     1.468000000    -1.531000000
O    -1.679000000     2.616000000    -2.267000000
O     2.081000000     2.096000000     3.536000000
H     2.424000000     2.416000000     4.371000000
H     1.332000000     1.551000000     3.777000000
O     7.754000000     1.457000000     1.048000000
H     6.926000000     1.639000000     0.604000000
H     8.050000000     0.628000000     0.674000000
O    -1.241000000     3.993000000    -6.058000000
H    -1.533000000     3.260000000    -5.516000000
H    -0.953000000     3.587000000    -6.876000000
O     0.710000000     2.172000000    -3.839000000
H     0.632000000     3.019000000    -3.402000000
H    -0.179000000     1.816000000    -3.833000000
O     3.611000000    -0.688000000     3.913000000
H     2.741000000    -0.574000000     3.530000000
H     3.539000000    -0.309000000     4.789000000
O    -4.083000000     3.277000000    -6.674000000
H    -3.783000000     3.197000000    -7.579000000
H    -3.650000000     2.558000000    -6.214000000
O     1.202000000    -5.956000000     4.093000000
H     0.750000000    -5.328000000     3.529000000
H     0.523000000    -6.281000000     4.683000000
O    -4.039000000    -0.567000000     2.820000000
H    -4.275000000    -0.617000000     1.894000000
H    -4.641000000     0.081000000     3.186000000
O    -3.924000000    -2.340000000    -1.124000000
H    -4.764000000    -2.249000000    -1.574000000
H    -4.047000000    -3.086000000    -0.536000000
O     3.130000000     2.817000000     1.175000000
H     2.855000000     2.628000000     2.073000000
H     2.686000000     3.636000000     0.956000000
O     0.347000000     6.190000000    -0.955000000
H     0.386000000     6.894000000    -0.308000000
H     1.045000000     5.588000000    -0.696000000
O    -2.939000000     4.168000000     0.446000000
H    -2.022000000     4.089000000     0.709000000
H    -3.084000000     3.427000000    -0.142000000
O    -4.410000000     6.830000000    -2.547000000
H    -5.287000000     7.054000000    -2.858000000
H    -4.201000000     6.009000000    -2.991000000
O    -4.738000000     6.122000000     0.179000000
H    -4.621000000     6.389000000    -0.733000000
H    -4.051000000     5.472000000     0.327000000
O    -6.243000000     1.050000000    -4.659000000
H    -6.364000000     1.604000000    -3.888000000
H    -6.153000000     1.667000000    -5.386000000
O     2.217000000     5.883000000     1.151000000
H     2.844000000     6.515000000     0.799000000
H     2.137000000     6.114000000     2.076000000
O     3.286000000     1.911000000    -3.216000000
H     3.489000000     2.557000000    -3.892000000
H     2.336000000     1.804000000    -3.264000000
O     5.257000000    -1.173000000    -0.623000000
H     5.043000000    -0.883000000     0.264000000
H     6.128000000    -0.812000000    -0.789000000
O     3.605000000    -0.875000000    -2.880000000
H     4.129000000    -0.953000000    -2.082000000
H     3.317000000     0.038000000    -2.889000000
O     0.010000000    -0.724000000    -3.697000000
H     0.842000000    -1.185000000    -3.592000000
H    -0.655000000    -1.379000000    -3.482000000
O    -0.314000000     4.641000000    -3.102000000
H    -0.916000000     3.916000000    -2.937000000
H    -0.291000000     5.125000000    -2.277000000
O     1.853000000    -5.153000000    -1.123000000
H     1.748000000    -5.916000000    -0.554000000
H     0.991000000    -4.736000000    -1.127000000
O    -6.599000000     2.722000000     0.747000000
H    -6.434000000     2.167000000    -0.015000000
H    -6.579000000     3.615000000     0.402000000
O    -1.574000000     0.706000000     3.260000000
H    -2.469000000     0.372000000     3.199000000
H    -1.121000000     0.075000000     3.820000000
O     5.520000000    -3.465000000     1.163000000
H     6.377000000    -3.095000000     1.374000000
H     5.225000000    -2.967000000     0.401000000
O     4.616000000    -5.045000000    -1.032000000
H     4.120000000    -4.830000000    -0.242000000
H     4.089000000    -4.691000000    -1.748000000
O    -3.924000000    -0.224000000    -3.705000000
H    -3.876000000     0.152000000    -2.826000000
H    -4.770000000     0.070000000    -4.044000000
O    -4.037000000     4.206000000    -3.785000000
H    -4.024000000     4.343000000    -4.732000000
H    -3.421000000     3.487000000    -3.639000000
O    -2.892000000    -3.203000000     2.309000000
H    -3.286000000    -2.356000000     2.518000000
H    -3.534000000    -3.633000000     1.744000000
O    -1.649000000    -5.279000000     3.525000000
H    -2.380000000    -5.270000000     4.142000000
H    -1.895000000    -4.642000000     2.854000000
O    -7.187000000     0.562000000    -1.071000000
H    -6.768000000     1.290000000    -1.530000000
H    -7.674000000     0.097000000    -1.752000000
O     3.367000000    -3.709000000    -3.046000000
H     2.680000000    -4.037000000    -2.466000000
H     3.373000000    -2.763000000    -2.899000000
O    -0.443000000    -3.884000000    -1.914000000
H    -0.861000000    -3.165000000    -1.439000000
H    -0.847000000    -3.865000000    -2.781000000
O    -5.710000000     1.842000000     3.254000000
H    -5.266000000     2.664000000     3.461000000
H    -5.888000000     1.896000000     2.315000000
O    -4.695000000     0.238000000     0.360000000
H    -4.214000000     0.818000000    -0.230000000
H    -5.519000000     0.064000000    -0.095000000
O     1.231000000     4.669000000    -5.691000000
H     1.505000000     5.077000000    -4.870000000
H     0.278000000     4.605000000    -5.621000000
O    -5.569000000     2.601000000    -2.198000000
H    -4.708000000     2.357000000    -1.856000000
H    -5.535000000     3.554000000    -2.274000000
O    -1.421000000    -1.863000000     4.298000000
H    -1.753000000    -2.467000000     3.634000000
H    -1.912000000    -2.083000000     5.089000000
O     5.120000000     2.435000000    -1.010000000
H     4.458000000     2.700000000    -0.373000000
H     4.678000000     2.499000000    -1.857000000
O    -2.161000000    -2.203000000    -3.363000000
H    -2.468000000    -2.071000000    -2.466000000
H    -2.752000000    -1.673000000    -3.898000000
O     0.775000000    -0.448000000     4.610000000
H     0.970000000    -0.718000000     5.508000000
H    -0.092000000    -0.812000000     4.434000000
O    -2.368000000     1.993000000    -4.670000000
H    -2.065000000     2.192000000    -3.784000000
H    -2.948000000     1.240000000    -4.561000000
O     6.497000000    -1.106000000     4.161000000
H     6.286000000    -0.179000000     4.268000000
H     5.666000000    -1.516000000     3.924000000
O    -0.362000000     3.023000000     1.825000000
H     0.390000000     2.487000000     1.573000000
H    -1.055000000     2.389000000     2.013000000
O     4.985000000     0.819000000     1.574000000
H     4.959000000     0.767000000     2.530000000
H     4.351000000     1.501000000     1.354000000
O    -4.535000000    -4.548000000     0.677000000
H    -4.101000000    -5.399000000     0.616000000
H    -5.437000000    -4.757000000     0.920000000
O     4.368000000    -3.699000000     4.478000000
H     3.904000000    -2.956000000     4.863000000
H     4.282000000    -3.572000000     3.533000000
O     2.693000000    -6.710000000     1.735000000
H     2.205000000    -6.442000000     2.514000000
H     2.019000000    -6.886000000     1.079000000
