161
-3013.33822
C    -1.033000000    -0.432000000    -1.017000000
H    -1.856000000    -0.839000000    -1.600000000
C    -1.271000000    -0.236000000     0.376000000
H    -2.241000000    -0.483000000     0.799000000
C    -0.209000000     0.235000000     1.233000000
C    -0.300000000     0.182000000     2.706000000
H    -1.220000000     0.622000000     3.097000000
H    -0.205000000    -0.828000000     3.112000000
H     0.502000000     0.795000000     3.121000000
C     0.998000000     0.508000000     0.605000000
H     1.804000000     0.825000000     1.261000000
C     1.239000000     0.321000000    -0.703000000
H     2.157000000     0.704000000    -1.141000000
C     0.219000000    -0.223000000    -1.562000000
C     0.386000000    -0.289000000    -3.003000000
O     1.451000000     0.018000000    -3.551000000
O    -0.428000000    -0.875000000    -3.741000000
O    -1.498000000     2.077000000    -6.515000000
H    -0.929000000     2.845000000    -6.559000000
H    -0.948000000     1.353000000    -6.813000000
O     3.656000000    -1.455000000    -3.653000000
H     4.068000000    -1.328000000    -2.798000000
H     2.803000000    -1.028000000    -3.574000000
O     0.444000000     0.062000000    -6.170000000
H     0.248000000    -0.069000000    -5.243000000
H     0.637000000     0.997000000    -6.245000000
O     2.860000000    -2.231000000     3.043000000
H     2.772000000    -2.186000000     2.091000000
H     2.452000000    -3.063000000     3.283000000
O    -0.836000000    -3.270000000     1.802000000
H    -0.656000000    -3.382000000     2.735000000
H    -0.968000000    -2.328000000     1.695000000
O    -0.091000000    -5.120000000    -7.136000000
H    -0.793000000    -5.136000000    -7.787000000
H    -0.537000000    -4.938000000    -6.308000000
O     2.652000000    -4.619000000    -1.408000000
H     2.065000000    -4.405000000    -2.134000000
H     2.852000000    -3.775000000    -1.005000000
O    -2.571000000    -6.368000000    -2.461000000
H    -2.058000000    -6.980000000    -1.933000000
H    -2.621000000    -5.575000000    -1.927000000
O    -2.013000000     3.589000000    -0.653000000
H    -1.879000000     4.303000000    -0.029000000
H    -1.131000000     3.274000000    -0.850000000
O    -3.524000000    -3.374000000    -3.411000000
H    -3.893000000    -2.709000000    -2.831000000
H    -3.072000000    -2.875000000    -4.092000000
O     1.589000000    -2.425000000     0.539000000
H     1.257000000    -1.528000000     0.550000000
H     0.860000000    -2.955000000     0.862000000
O    -4.303000000     1.247000000     4.274000000
H    -4.695000000     1.183000000     5.145000000
H    -4.773000000     1.966000000     3.852000000
O    -4.457000000    -0.861000000    -2.489000000
H    -4.719000000    -0.355000000    -1.720000000
H    -4.158000000    -0.204000000    -3.118000000
O     1.721000000    -4.796000000    -4.841000000
H     1.675000000    -3.970000000    -5.323000000
H     1.082000000    -5.362000000    -5.274000000
O    -5.009000000    -2.927000000     0.415000000
H    -5.446000000    -2.109000000     0.652000000
H    -4.172000000    -2.653000000     0.042000000
O    -1.678000000    -0.368000000     7.299000000
H    -2.284000000    -0.937000000     6.823000000
H    -2.238000000     0.140000000     7.886000000
O     0.126000000     4.843000000     5.680000000
H    -0.026000000     3.898000000     5.707000000
H     1.074000000     4.931000000     5.586000000
O     3.623000000     1.886000000    -3.751000000
H     3.116000000     2.515000000    -3.238000000
H     3.095000000     1.087000000    -3.740000000
O     4.976000000    -2.404000000     4.618000000
H     5.339000000    -3.159000000     4.155000000
H     4.233000000    -2.128000000     4.081000000
O     1.933000000    -2.222000000    -5.883000000
H     1.269000000    -1.534000000    -5.824000000
H     2.613000000    -1.952000000    -5.266000000
O    -6.433000000    -1.095000000     3.402000000
H    -5.940000000    -0.859000000     2.615000000
H    -7.106000000    -0.418000000     3.475000000
O    -0.156000000     4.184000000    -4.069000000
H     0.030000000     3.549000000    -3.377000000
H    -0.062000000     5.036000000    -3.644000000
O     7.070000000     1.477000000     2.183000000
H     7.347000000     1.320000000     3.086000000
H     6.121000000     1.591000000     2.241000000
O    -4.164000000     2.131000000    -2.241000000
H    -3.539000000     2.510000000    -1.623000000
H    -3.622000000     1.802000000    -2.958000000
O    -0.457000000    -3.346000000    -2.597000000
H    -0.339000000    -2.496000000    -3.020000000
H    -0.676000000    -3.942000000    -3.313000000
O    -1.725000000    -4.995000000    -4.771000000
H    -2.147000000    -4.140000000    -4.862000000
H    -2.261000000    -5.460000000    -4.128000000
O    -0.401000000     2.185000000     5.732000000
H     0.554000000     2.148000000     5.675000000
H    -0.641000000     1.402000000     6.228000000
O     5.115000000    -2.011000000    -6.082000000
H     4.931000000    -2.950000000    -6.095000000
H     4.967000000    -1.750000000    -5.173000000
O    -2.714000000    -3.527000000     4.506000000
H    -1.759000000    -3.479000000     4.534000000
H    -3.007000000    -2.783000000     5.033000000
O     6.539000000     2.192000000    -4.361000000
H     5.649000000     2.114000000    -4.018000000
H     6.748000000     1.316000000    -4.685000000
O    -2.100000000    -4.040000000    -0.566000000
H    -1.621000000    -3.916000000     0.253000000
H    -1.575000000    -3.583000000    -1.223000000
O    -2.463000000    -2.380000000    -5.571000000
H    -2.734000000    -1.985000000    -6.399000000
H    -1.763000000    -1.810000000    -5.252000000
O    -0.011000000    -3.701000000     4.459000000
H     0.692000000    -4.350000000     4.435000000
H     0.324000000    -3.005000000     5.024000000
O     4.335000000     2.237000000     2.365000000
H     4.253000000     2.489000000     1.445000000
H     3.439000000     2.264000000     2.701000000
O     0.628000000     3.084000000    -1.302000000
H     0.595000000     2.148000000    -1.103000000
H     1.560000000     3.272000000    -1.418000000
O    -4.149000000    -1.126000000     5.527000000
H    -5.106000000    -1.160000000     5.534000000
H    -3.939000000    -0.440000000     4.894000000
O    -2.479000000     0.701000000    -4.311000000
H    -1.820000000     0.174000000    -3.860000000
H    -2.071000000     0.934000000    -5.145000000
O    -4.190000000    -5.270000000     1.693000000
H    -4.878000000    -5.911000000     1.517000000
H    -4.346000000    -4.570000000     1.060000000
O    -5.395000000    -0.019000000     0.227000000
H    -4.913000000     0.752000000     0.525000000
H    -6.314000000     0.248000000     0.252000000
O     2.062000000    -0.403000000     5.257000000
H     2.161000000    -0.729000000     4.362000000
H     2.112000000     0.549000000     5.172000000
O     0.494000000    -2.169000000     6.590000000
H     0.887000000    -1.605000000     5.923000000
H     0.029000000    -1.566000000     7.170000000
O     3.133000000     4.022000000    -1.823000000
H     2.965000000     4.907000000    -2.148000000
H     4.001000000     4.076000000    -1.423000000
O     2.319000000     3.202000000    -6.343000000
H     2.622000000     2.886000000    -7.194000000
H     2.865000000     2.739000000    -5.708000000
O     4.448000000    -0.640000000    -1.181000000
H     4.960000000     0.102000000    -0.859000000
H     5.070000000    -1.367000000    -1.204000000
O    -2.387000000     3.928000000     4.296000000
H    -1.946000000     3.307000000     4.875000000
H    -3.217000000     4.116000000     4.734000000
O     0.939000000     3.583000000     2.034000000
H     0.824000000     4.414000000     1.573000000
H     0.047000000     3.276000000     2.200000000
O     2.305000000     2.328000000     5.654000000
H     2.721000000     3.091000000     5.253000000
H     2.898000000     2.075000000     6.361000000
O    -4.676000000     2.405000000     0.963000000
H    -3.781000000     2.727000000     0.849000000
H    -5.008000000     2.885000000     1.721000000
