161
-3054.33000
C    -0.533000000    -0.576000000    -1.307000000
H    -1.029000000    -1.061000000    -2.144000000
C    -0.730000000    -1.119000000    -0.051000000
H    -1.202000000    -2.098000000    -0.012000000
C    -0.216000000    -0.455000000     1.110000000
C    -0.456000000    -1.076000000     2.485000000
H     0.498000000    -1.532000000     2.758000000
H    -0.720000000    -0.310000000     3.217000000
H    -1.343000000    -1.711000000     2.439000000
C     0.433000000     0.748000000     1.021000000
H     0.802000000     1.294000000     1.886000000
C     0.648000000     1.287000000    -0.279000000
H     1.262000000     2.179000000    -0.371000000
C     0.181000000     0.610000000    -1.419000000
C     0.647000000     1.162000000    -2.778000000
O     1.323000000     2.207000000    -2.879000000
O     0.440000000     0.447000000    -3.683000000
O     0.894000000     6.217000000     1.641000000
H     0.268000000     6.940000000     1.682000000
H     1.249000000     6.258000000     0.753000000
O    -5.211000000    -2.879000000    -1.304000000
H    -4.580000000    -3.085000000    -1.994000000
H    -6.001000000    -3.359000000    -1.552000000
O     1.129000000    -2.011000000    -4.836000000
H     1.837000000    -1.945000000    -5.477000000
H     1.310000000    -1.314000000    -4.206000000
O    -3.171000000    -3.903000000    -4.320000000
H    -4.096000000    -3.974000000    -4.556000000
H    -3.067000000    -2.997000000    -4.029000000
O    -0.227000000    -2.786000000     5.306000000
H     0.390000000    -2.055000000     5.273000000
H    -0.830000000    -2.559000000     6.013000000
O    -0.854000000     4.247000000     2.444000000
H    -1.590000000     4.811000000     2.206000000
H    -0.078000000     4.747000000     2.191000000
O    -4.426000000    -4.495000000     0.890000000
H    -5.119000000    -4.737000000     1.504000000
H    -4.819000000    -3.818000000     0.339000000
O    -5.959000000    -1.275000000     0.742000000
H    -5.616000000    -1.791000000     0.012000000
H    -6.799000000    -0.943000000     0.425000000
O    -1.669000000     3.346000000     5.896000000
H    -1.822000000     2.847000000     5.094000000
H    -1.989000000     2.777000000     6.597000000
O     2.702000000     5.961000000    -0.669000000
H     3.393000000     5.976000000    -1.332000000
H     2.012000000     5.422000000    -1.055000000
O    -1.774000000     1.004000000    -4.998000000
H    -1.893000000     1.824000000    -4.519000000
H    -1.076000000     0.550000000    -4.525000000
O    -2.145000000     3.613000000    -0.368000000
H    -2.365000000     2.802000000     0.092000000
H    -2.372000000     4.308000000     0.251000000
O     0.610000000     0.466000000    -7.867000000
H     0.486000000     1.374000000    -8.144000000
H    -0.211000000     0.031000000    -8.097000000
O     4.105000000     1.447000000    -0.297000000
H     4.800000000     1.806000000     0.254000000
H     3.432000000     2.127000000    -0.307000000
O     2.931000000     2.443000000     3.361000000
H     2.140000000     2.926000000     3.599000000
H     3.136000000     2.742000000     2.475000000
O     4.031000000     0.869000000    -3.360000000
H     3.077000000     0.933000000    -3.413000000
H     4.238000000     1.124000000    -2.461000000
O     2.100000000    -2.439000000    -0.347000000
H     1.432000000    -1.764000000    -0.225000000
H     1.954000000    -3.053000000     0.372000000
O     4.115000000    -1.076000000    -5.422000000
H     4.906000000    -1.353000000    -4.960000000
H     3.966000000    -0.178000000    -5.126000000
O    -1.672000000    -5.518000000     0.293000000
H    -1.563000000    -5.523000000    -0.658000000
H    -2.586000000    -5.264000000     0.427000000
O     5.813000000     4.075000000    -2.877000000
H     5.056000000     4.197000000    -3.450000000
H     6.058000000     4.962000000    -2.611000000
O    -1.750000000    -5.405000000    -2.378000000
H    -2.464000000    -5.266000000    -3.000000000
H    -1.012000000    -4.921000000    -2.749000000
O     1.215000000    -0.508000000     5.059000000
H     0.761000000     0.285000000     4.775000000
H     2.124000000    -0.371000000     4.793000000
O     3.035000000     4.333000000    -3.587000000
H     2.644000000     3.491000000    -3.350000000
H     3.023000000     4.341000000    -4.544000000
O     3.407000000     2.645000000     6.142000000
H     4.119000000     3.243000000     6.371000000
H     3.505000000     2.505000000     5.201000000
O    -4.794000000     1.737000000     4.585000000
H    -3.968000000     2.091000000     4.255000000
H    -4.537000000     0.977000000     5.107000000
O     0.675000000     3.558000000     4.394000000
H     0.099000000     3.679000000     5.149000000
H     0.119000000     3.744000000     3.637000000
O     3.148000000    -3.256000000     5.512000000
H     2.434000000    -2.623000000     5.437000000
H     3.501000000    -3.115000000     6.391000000
O     0.477000000    -4.310000000    -3.392000000
H     1.219000000    -4.905000000    -3.286000000
H     0.826000000    -3.581000000    -3.904000000
O    -2.184000000     3.024000000    -3.210000000
H    -1.664000000     3.289000000    -2.452000000
H    -3.091000000     3.084000000    -2.911000000
O     0.880000000    -4.788000000     1.264000000
H     1.404000000    -5.575000000     1.115000000
H     0.062000000    -4.953000000     0.796000000
O    -0.098000000     3.486000000    -5.026000000
H     0.460000000     2.771000000    -4.721000000
H    -0.787000000     3.552000000    -4.365000000
O    -3.564000000    -0.765000000    -3.825000000
H    -4.129000000    -0.144000000    -3.365000000
H    -2.951000000    -0.214000000    -4.312000000
O    -3.241000000    -4.002000000     4.718000000
H    -2.479000000    -3.883000000     4.150000000
H    -3.453000000    -4.932000000     4.642000000
O     4.030000000    -0.522000000     4.105000000
H     4.936000000    -0.711000000     3.861000000
H     3.822000000     0.291000000     3.644000000
O     3.513000000     3.843000000     0.842000000
H     4.440000000     4.067000000     0.930000000
H     3.158000000     4.518000000     0.264000000
O    -2.214000000     1.909000000     3.511000000
H    -1.761000000     2.517000000     2.927000000
H    -2.470000000     1.180000000     2.945000000
O     0.554000000     4.323000000    -1.509000000
H    -0.254000000     4.092000000    -1.051000000
H     0.866000000     3.495000000    -1.875000000
O    -5.631000000    -2.147000000     4.243000000
H    -5.096000000    -2.939000000     4.297000000
H    -6.188000000    -2.286000000     3.477000000
O    -2.217000000     0.831000000    -7.784000000
H    -1.926000000     0.923000000    -6.877000000
H    -2.208000000     1.724000000    -8.130000000
O     2.287000000     4.619000000    -6.314000000
H     1.393000000     4.426000000    -6.034000000
H     2.214000000     4.783000000    -7.254000000
O     4.114000000    -3.389000000     2.824000000
H     4.911000000    -2.860000000     2.792000000
H     3.780000000    -3.265000000     3.713000000
O     2.024000000     1.487000000    -5.676000000
H     1.796000000     1.280000000    -6.582000000
H     1.488000000     0.893000000    -5.151000000
O     0.006000000    -5.042000000     3.955000000
H     0.091000000    -4.320000000     4.578000000
H     0.290000000    -4.672000000     3.119000000
O     4.583000000    -1.158000000    -0.778000000
H     3.741000000    -1.557000000    -0.559000000
H     4.499000000    -0.249000000    -0.492000000
O    -2.737000000     1.140000000     0.975000000
H    -3.461000000     1.178000000     0.351000000
H    -2.000000000     0.803000000     0.466000000
O    -1.637000000    -0.060000000     6.760000000
H    -1.397000000    -0.463000000     7.594000000
H    -0.997000000     0.642000000     6.640000000
O     1.367000000     6.853000000    -3.670000000
H     1.915000000     6.092000000    -3.861000000
H     0.906000000     6.620000000    -2.864000000
O    -4.301000000    -0.415000000     6.230000000
H    -3.345000000    -0.360000000     6.228000000
H    -4.503000000    -1.082000000     5.574000000
