161
-3049.16081
C    -0.127000000    -1.412000000    -0.211000000
H    -0.432000000    -2.453000000    -0.273000000
C    -1.192000000    -0.534000000     0.036000000
H    -2.232000000    -0.819000000     0.172000000
C    -0.907000000     0.793000000     0.213000000
C    -2.048000000     1.777000000     0.498000000
H    -2.229000000     2.624000000    -0.167000000
H    -2.984000000     1.216000000     0.481000000
H    -1.900000000     2.203000000     1.493000000
C     0.417000000     1.196000000     0.154000000
H     0.642000000     2.226000000     0.421000000
C     1.445000000     0.320000000    -0.169000000
H     2.480000000     0.627000000    -0.303000000
C     1.195000000    -1.022000000    -0.246000000
C     2.321000000    -1.987000000    -0.595000000
O     3.520000000    -1.657000000    -0.499000000
O     2.037000000    -3.102000000    -1.008000000
O    -6.653000000     3.184000000    -0.916000000
H    -7.464000000     2.675000000    -0.907000000
H    -6.531000000     3.423000000    -1.835000000
O     3.768000000    -4.850000000    -1.800000000
H     3.113000000    -4.199000000    -1.550000000
H     4.605000000    -4.449000000    -1.566000000
O    -4.351000000     0.806000000     4.439000000
H    -5.198000000     1.239000000     4.547000000
H    -4.566000000    -0.124000000     4.358000000
O     0.896000000     4.541000000     0.386000000
H     0.412000000     4.205000000    -0.369000000
H     1.626000000     5.029000000     0.004000000
O     2.813000000    -7.357000000    -1.716000000
H     3.211000000    -6.487000000    -1.675000000
H     2.199000000    -7.374000000    -0.982000000
O     5.155000000     2.156000000     1.474000000
H     4.551000000     2.612000000     2.059000000
H     4.588000000     1.660000000     0.883000000
O     5.724000000    -2.886000000    -1.317000000
H     4.979000000    -2.340000000    -1.068000000
H     6.280000000    -2.903000000    -0.538000000
O     1.472000000     1.914000000    -3.788000000
H     1.759000000     2.370000000    -4.579000000
H     1.878000000     2.400000000    -3.070000000
O     3.143000000     5.311000000    -0.282000000
H     3.842000000     5.946000000    -0.130000000
H     3.553000000     4.623000000    -0.806000000
O    -0.913000000    -1.417000000    -3.599000000
H    -1.133000000    -1.562000000    -2.679000000
H    -1.327000000    -2.145000000    -4.062000000
O    -5.292000000     0.395000000    -0.493000000
H    -5.221000000    -0.022000000    -1.351000000
H    -4.937000000     1.275000000    -0.624000000
O    -3.271000000    -4.329000000    -0.270000000
H    -2.447000000    -4.155000000     0.186000000
H    -3.308000000    -5.283000000    -0.342000000
O     0.035000000     1.328000000     5.735000000
H     0.744000000     1.055000000     6.317000000
H     0.466000000     1.503000000     4.898000000
O     4.418000000    -2.431000000     1.912000000
H     4.881000000    -3.269000000     1.902000000
H     4.236000000    -2.246000000     0.991000000
O    -0.359000000    -2.758000000     2.606000000
H    -0.069000000    -3.506000000     2.082000000
H    -0.942000000    -2.270000000     2.024000000
O     2.047000000    -5.614000000    -4.248000000
H     2.488000000    -6.349000000    -3.823000000
H     2.720000000    -5.217000000    -4.800000000
O    -5.267000000     3.614000000     1.465000000
H    -5.613000000     2.761000000     1.728000000
H    -5.561000000     3.723000000     0.561000000
O    -0.273000000    -4.142000000     4.858000000
H     0.619000000    -4.419000000     4.651000000
H    -0.518000000    -3.563000000     4.137000000
O     4.306000000    -0.295000000    -4.623000000
H     3.385000000    -0.100000000    -4.797000000
H     4.396000000    -0.199000000    -3.675000000
O     3.090000000     4.019000000     2.396000000
H     2.688000000     4.402000000     1.616000000
H     3.806000000     4.617000000     2.615000000
O     2.179000000    -0.977000000     2.911000000
H     1.583000000    -1.486000000     2.362000000
H     3.053000000    -1.236000000     2.619000000
O    -1.215000000     1.494000000    -3.213000000
H    -0.291000000     1.514000000    -3.462000000
H    -1.352000000     0.611000000    -2.871000000
O    -2.061000000    -5.328000000    -3.484000000
H    -1.173000000    -4.992000000    -3.357000000
H    -1.936000000    -6.186000000    -3.890000000
O     3.675000000     3.295000000    -2.464000000
H     4.404000000     2.685000000    -2.353000000
H     4.079000000     4.091000000    -2.809000000
O    -7.238000000    -1.478000000     1.267000000
H    -6.900000000    -0.839000000     0.640000000
H    -6.773000000    -2.288000000     1.056000000
O     5.560000000    -2.697000000    -4.029000000
H     5.341000000    -3.016000000    -3.154000000
H     5.048000000    -1.894000000    -4.127000000
O     1.940000000    -5.235000000     0.691000000
H     1.880000000    -4.510000000     0.069000000
H     2.872000000    -5.453000000     0.716000000
O    -2.811000000     3.190000000     4.511000000
H    -1.927000000     3.296000000     4.159000000
H    -3.007000000     2.261000000     4.389000000
O     6.920000000     2.768000000    -0.591000000
H     7.764000000     2.712000000    -0.142000000
H     6.311000000     2.310000000    -0.012000000
O    -0.348000000     3.782000000     2.966000000
H     0.309000000     3.101000000     2.818000000
H    -0.144000000     4.456000000     2.318000000
O    -5.589000000     6.638000000    -1.755000000
H    -5.572000000     6.833000000    -2.692000000
H    -4.829000000     6.072000000    -1.615000000
O     0.181000000    -4.160000000    -2.877000000
H     0.838000000    -4.677000000    -3.343000000
H     0.682000000    -3.665000000    -2.229000000
O    -5.114000000    -0.776000000    -3.574000000
H    -4.521000000    -1.528000000    -3.574000000
H    -4.575000000    -0.047000000    -3.881000000
O     4.884000000     0.288000000    -1.954000000
H     4.489000000    -0.364000000    -1.375000000
H     5.824000000     0.211000000    -1.796000000
O    -3.350000000     5.270000000    -1.694000000
H    -3.029000000     5.221000000    -2.595000000
H    -3.159000000     4.409000000    -1.324000000
O     1.547000000    -0.828000000    -4.696000000
H     0.815000000    -1.316000000    -4.316000000
H     1.322000000     0.091000000    -4.552000000
O    -0.804000000    -5.002000000     0.877000000
H     0.148000000    -5.102000000     0.844000000
H    -1.115000000    -5.802000000     1.300000000
O     0.026000000     6.320000000     3.943000000
H     0.558000000     6.652000000     4.665000000
H    -0.108000000     5.395000000     4.149000000
O    -5.783000000    -3.603000000     0.470000000
H    -5.698000000    -4.470000000     0.867000000
H    -4.923000000    -3.430000000     0.086000000
O    -2.165000000     7.722000000    -0.528000000
H    -2.648000000     6.928000000    -0.760000000
H    -2.424000000     7.903000000     0.376000000
O     1.608000000     1.622000000     3.458000000
H     2.287000000     2.239000000     3.186000000
H     1.940000000     0.766000000     3.189000000
O    -6.750000000     1.372000000     1.886000000
H    -6.275000000     0.943000000     1.175000000
H    -7.552000000     1.696000000     1.478000000
O     4.450000000    -5.576000000     1.458000000
H     5.185000000    -6.106000000     1.151000000
H     4.222000000    -5.954000000     2.308000000
O    -0.664000000     3.976000000    -1.866000000
H    -0.646000000     3.029000000    -2.001000000
H    -0.758000000     4.343000000    -2.745000000
O     6.113000000    -0.836000000     3.808000000
H     5.511000000    -1.424000000     3.353000000
H     6.828000000    -1.403000000     4.098000000
O     7.776000000    -2.682000000     0.756000000
H     8.664000000    -2.854000000     1.069000000
H     7.890000000    -2.056000000     0.041000000
O    -3.793000000     2.040000000    -4.062000000
H    -3.662000000     1.987000000    -5.008000000
H    -2.943000000     2.317000000    -3.718000000
O    -3.542000000     5.208000000     2.658000000
H    -4.000000000     4.763000000     1.945000000
H    -3.532000000     4.570000000     3.371000000
