161
-3022.23805
C    -0.274000000    -0.959000000    -1.051000000
H    -0.608000000    -1.607000000    -1.858000000
C    -0.951000000    -0.969000000     0.167000000
H    -1.802000000    -1.640000000     0.243000000
C    -0.537000000     0.012000000     1.091000000
C    -1.201000000     0.090000000     2.442000000
H    -2.058000000     0.767000000     2.424000000
H    -1.497000000    -0.931000000     2.691000000
H    -0.604000000     0.505000000     3.257000000
C     0.518000000     0.841000000     0.845000000
H     0.821000000     1.602000000     1.560000000
C     1.213000000     0.824000000    -0.382000000
H     2.052000000     1.501000000    -0.521000000
C     0.756000000    -0.078000000    -1.403000000
C     1.222000000    -0.013000000    -2.810000000
O     2.046000000     0.814000000    -3.061000000
O     0.912000000    -0.758000000    -3.636000000
O    -4.727000000    -3.771000000     2.877000000
H    -4.560000000    -4.693000000     2.682000000
H    -5.601000000    -3.763000000     3.267000000
O     3.766000000    -0.268000000    -5.040000000
H     2.996000000    -0.063000000    -4.509000000
H     4.140000000     0.585000000    -5.260000000
O    -3.094000000     4.204000000     3.288000000
H    -3.409000000     4.232000000     2.384000000
H    -3.414000000     5.017000000     3.678000000
O     2.148000000    -1.739000000     4.124000000
H     2.309000000    -0.899000000     4.554000000
H     2.427000000    -1.602000000     3.218000000
O    -5.856000000     0.286000000     1.848000000
H    -5.130000000    -0.212000000     2.224000000
H    -5.435000000     1.016000000     1.394000000
O    -1.051000000    -1.459000000    -7.850000000
H    -1.639000000    -0.940000000    -7.302000000
H    -0.214000000    -0.997000000    -7.808000000
O     5.667000000     1.638000000    -2.937000000
H     5.279000000     0.853000000    -2.552000000
H     5.825000000     2.218000000    -2.191000000
O     0.442000000     5.036000000     3.671000000
H     0.531000000     4.403000000     4.384000000
H     1.272000000     4.979000000     3.197000000
O    -1.554000000    -4.616000000    -0.128000000
H    -0.934000000    -4.775000000    -0.839000000
H    -1.245000000    -5.170000000     0.588000000
O    -3.027000000    -0.168000000    -5.966000000
H    -3.105000000    -0.815000000    -5.265000000
H    -3.929000000     0.101000000    -6.144000000
O    -3.423000000     1.825000000     4.982000000
H    -3.235000000     2.504000000     4.334000000
H    -4.331000000     1.576000000     4.812000000
O    -4.777000000     2.559000000     0.063000000
H    -5.546000000     3.128000000     0.023000000
H    -4.134000000     2.987000000    -0.503000000
O     0.736000000     1.650000000    -8.380000000
H     0.512000000     1.399000000    -7.484000000
H     1.681000000     1.800000000    -8.358000000
O     0.591000000    -4.153000000     3.173000000
H     1.007000000    -4.732000000     3.812000000
H     0.887000000    -3.276000000     3.417000000
O    -3.918000000    -3.476000000     0.107000000
H    -3.873000000    -3.275000000     1.042000000
H    -3.090000000    -3.916000000    -0.083000000
O    -1.363000000    -0.377000000     5.723000000
H    -1.840000000     0.344000000     5.312000000
H    -1.097000000    -0.935000000     4.993000000
O     3.348000000     3.055000000     5.100000000
H     3.944000000     3.802000000     5.043000000
H     3.641000000     2.574000000     5.874000000
O    -3.055000000    -2.361000000    -4.171000000
H    -2.168000000    -2.445000000    -3.821000000
H    -3.548000000    -1.929000000    -3.473000000
O     4.141000000    -0.112000000    -1.564000000
H     4.263000000    -1.062000000    -1.546000000
H     3.394000000     0.022000000    -2.147000000
O     2.756000000    -0.934000000     1.312000000
H     2.706000000    -1.474000000     0.523000000
H     2.206000000    -0.175000000     1.118000000
O     2.895000000    -1.996000000    -6.865000000
H     3.261000000    -1.378000000    -6.232000000
H     3.039000000    -1.581000000    -7.715000000
O    -3.626000000    -5.590000000    -2.367000000
H    -3.160000000    -5.694000000    -3.197000000
H    -2.968000000    -5.239000000    -1.766000000
O     1.743000000     3.142000000    -5.865000000
H     1.149000000     2.408000000    -6.024000000
H     1.695000000     3.287000000    -4.920000000
O     5.235000000     0.032000000     1.602000000
H     5.519000000     0.369000000     2.452000000
H     4.348000000    -0.291000000     1.757000000
O     6.008000000    -1.598000000    -5.292000000
H     6.260000000    -2.052000000    -4.488000000
H     5.081000000    -1.394000000    -5.171000000
O     0.102000000    -5.182000000    -2.167000000
H     0.032000000    -4.362000000    -2.655000000
H     0.753000000    -5.692000000    -2.649000000
O     2.823000000     3.842000000     2.130000000
H     3.409000000     4.392000000     1.610000000
H     3.057000000     4.034000000     3.038000000
O    -4.093000000    -0.176000000     7.155000000
H    -3.685000000     0.343000000     6.462000000
H    -4.043000000    -1.078000000     6.840000000
O     0.558000000     5.438000000    -4.110000000
H     0.965000000     4.827000000    -3.496000000
H     1.265000000     5.688000000    -4.704000000
O    -6.633000000    -3.714000000    -0.528000000
H    -5.734000000    -3.446000000    -0.338000000
H    -7.175000000    -3.028000000    -0.138000000
O     5.521000000     1.675000000    -5.741000000
H     5.863000000     1.539000000    -4.857000000
H     4.862000000     2.361000000    -5.639000000
O     3.154000000    -3.169000000    -3.334000000
H     2.712000000    -3.861000000    -2.844000000
H     2.446000000    -2.605000000    -3.645000000
O    -0.090000000    -3.206000000    -4.087000000
H     0.147000000    -3.416000000    -4.990000000
H     0.195000000    -2.300000000    -3.968000000
O     0.458000000     1.494000000     7.672000000
H    -0.297000000     2.082000000     7.647000000
H     0.088000000     0.622000000     7.542000000
O    -3.676000000    -1.164000000    -1.729000000
H    -4.136000000    -1.669000000    -1.059000000
H    -3.503000000    -0.318000000    -1.316000000
O     0.888000000    -3.732000000    -6.788000000
H     1.671000000    -3.193000000    -6.670000000
H     0.310000000    -3.198000000    -7.333000000
O     2.269000000     3.403000000    -3.170000000
H     2.441000000     2.478000000    -2.996000000
H     2.846000000     3.872000000    -2.567000000
O     0.515000000     4.082000000     6.075000000
H    -0.220000000     3.567000000     6.407000000
H     1.037000000     4.284000000     6.852000000
O    -6.468000000     1.368000000     4.351000000
H    -6.205000000     0.773000000     3.649000000
H    -7.194000000     0.920000000     4.784000000
O     0.066000000     1.037000000    -5.880000000
H     0.376000000     0.643000000    -5.065000000
H    -0.887000000     0.970000000    -5.832000000
O    -2.007000000    -3.745000000     3.982000000
H    -1.153000000    -3.752000000     3.551000000
H    -2.638000000    -3.801000000     3.264000000
O    -4.031000000    -1.091000000     3.818000000
H    -3.437000000    -1.476000000     4.463000000
H    -4.423000000    -1.844000000     3.375000000
O     1.666000000     0.856000000     4.806000000
H     0.871000000     0.769000000     5.332000000
H     1.879000000     1.788000000     4.846000000
O     3.680000000     5.294000000    -1.045000000
H     3.953000000     5.921000000    -0.376000000
H     4.067000000     4.464000000    -0.767000000
O     3.691000000    -2.828000000    -0.499000000
H     3.626000000    -3.657000000    -0.974000000
H     4.484000000    -2.917000000     0.029000000
O     0.538000000     4.308000000     0.310000000
H    -0.263000000     3.888000000     0.622000000
H     1.193000000     4.103000000     0.978000000
O     5.070000000     3.029000000    -0.340000000
H     5.074000000     2.160000000     0.060000000
H     5.914000000     3.409000000    -0.096000000
O     6.731000000    -0.290000000    -0.597000000
H     5.900000000    -0.243000000    -1.070000000
H     6.485000000    -0.526000000     0.297000000
