161
-3021.57350
C    -0.714000000    -0.412000000    -1.272000000
H    -1.320000000    -0.689000000    -2.131000000
C    -1.270000000    -0.512000000     0.020000000
H    -2.255000000    -0.951000000     0.155000000
C    -0.508000000    -0.149000000     1.137000000
C    -1.068000000    -0.183000000     2.486000000
H    -2.130000000    -0.434000000     2.445000000
H    -0.506000000    -1.003000000     2.937000000
H    -0.853000000     0.722000000     3.059000000
C     0.781000000     0.369000000     0.951000000
H     1.430000000     0.640000000     1.779000000
C     1.249000000     0.530000000    -0.317000000
H     2.258000000     0.905000000    -0.472000000
C     0.527000000     0.146000000    -1.436000000
C     1.233000000     0.304000000    -2.766000000
O     2.047000000     1.229000000    -2.922000000
O     1.093000000    -0.518000000    -3.660000000
O     4.835000000     1.791000000    -6.905000000
H     3.962000000     1.502000000    -6.641000000
H     5.329000000     1.840000000    -6.086000000
O     2.408000000     1.017000000    -5.787000000
H     1.991000000     0.649000000    -5.009000000
H     2.111000000     1.927000000    -5.810000000
O    -5.803000000     3.306000000     0.919000000
H    -4.919000000     3.231000000     1.279000000
H    -6.378000000     3.067000000     1.646000000
O    -0.216000000     2.308000000    -6.681000000
H     0.251000000     2.492000000    -5.866000000
H    -0.844000000     1.625000000    -6.448000000
O     3.702000000    -1.289000000     4.016000000
H     3.106000000    -0.541000000     4.044000000
H     4.051000000    -1.351000000     4.905000000
O     2.631000000    -3.112000000     2.388000000
H     3.276000000    -2.855000000     1.730000000
H     2.913000000    -2.666000000     3.187000000
O    -1.514000000    -5.236000000     2.342000000
H    -1.632000000    -4.933000000     3.243000000
H    -1.765000000    -4.487000000     1.803000000
O     4.913000000    -2.687000000     0.731000000
H     5.541000000    -2.990000000     1.386000000
H     4.741000000    -3.457000000     0.189000000
O    -0.434000000     6.008000000     2.378000000
H    -1.376000000     5.838000000     2.382000000
H    -0.041000000     5.179000000     2.651000000
O    -2.114000000    -3.490000000     0.069000000
H    -2.228000000    -3.482000000    -0.881000000
H    -1.188000000    -3.287000000     0.201000000
O    -2.149000000     4.259000000    -3.295000000
H    -2.609000000     5.095000000    -3.221000000
H    -1.314000000     4.405000000    -2.849000000
O    -3.612000000    -0.359000000    -3.858000000
H    -3.528000000     0.401000000    -3.281000000
H    -4.450000000    -0.230000000    -4.302000000
O    -3.404000000    -0.053000000     5.315000000
H    -3.840000000     0.620000000     5.838000000
H    -3.532000000     0.228000000     4.409000000
O    -5.971000000     1.932000000    -1.709000000
H    -5.907000000     2.560000000    -0.990000000
H    -5.071000000     1.828000000    -2.018000000
O    -0.855000000    -1.684000000    -7.406000000
H    -1.029000000    -1.119000000    -6.653000000
H     0.091000000    -1.625000000    -7.537000000
O    -4.590000000    -4.198000000     1.333000000
H    -4.668000000    -4.012000000     2.269000000
H    -3.702000000    -3.921000000     1.106000000
O    -1.433000000    -1.605000000     6.549000000
H    -2.263000000    -1.196000000     6.303000000
H    -1.138000000    -1.108000000     7.312000000
O     1.203000000     2.371000000     5.120000000
H     1.112000000     1.418000000     5.110000000
H     2.147000000     2.521000000     5.084000000
O    -3.526000000    -3.431000000    -4.209000000
H    -2.866000000    -3.670000000    -3.559000000
H    -3.528000000    -2.474000000    -4.209000000
O     4.546000000     1.861000000    -2.469000000
H     4.568000000     2.637000000    -1.908000000
H     3.614000000     1.686000000    -2.599000000
O     6.260000000    -0.805000000     2.677000000
H     5.406000000    -1.020000000     2.300000000
H     6.536000000    -1.609000000     3.118000000
O     1.733000000    -1.255000000    -7.460000000
H     2.033000000    -0.589000000    -6.841000000
H     2.449000000    -1.337000000    -8.089000000
O    -3.436000000    -2.749000000     3.872000000
H    -4.174000000    -2.702000000     4.480000000
H    -3.314000000    -1.848000000     3.574000000
O     1.128000000     3.129000000    -4.591000000
H     1.170000000     4.081000000    -4.498000000
H     1.557000000     2.793000000    -3.804000000
O     4.477000000     1.431000000     2.860000000
H     4.547000000     2.022000000     3.609000000
H     5.046000000     0.694000000     3.082000000
O    -2.966000000     1.665000000    -1.930000000
H    -2.447000000     1.257000000    -1.237000000
H    -2.460000000     2.437000000    -2.185000000
O     1.700000000    -4.456000000    -4.393000000
H     2.031000000    -3.621000000    -4.723000000
H     1.855000000    -4.418000000    -3.449000000
O    -1.388000000    -3.826000000    -2.451000000
H    -0.632000000    -3.428000000    -2.021000000
H    -1.132000000    -4.738000000    -2.589000000
O     0.532000000     3.276000000     2.436000000
H     1.463000000     3.320000000     2.217000000
H     0.503000000     2.805000000     3.268000000
O    -0.869000000    -3.598000000     4.649000000
H    -1.625000000    -3.198000000     4.220000000
H    -0.676000000    -3.018000000     5.385000000
O     6.226000000     2.318000000    -4.713000000
H     5.476000000     2.026000000    -4.195000000
H     6.944000000     2.376000000    -4.083000000
O     0.790000000    -2.973000000     0.273000000
H     1.522000000    -2.872000000     0.881000000
H     0.553000000    -2.078000000     0.031000000
O     2.976000000    -2.066000000    -4.912000000
H     3.064000000    -1.640000000    -5.764000000
H     2.410000000    -1.480000000    -4.409000000
O    -7.249000000    -1.247000000     0.453000000
H    -6.827000000    -0.390000000     0.515000000
H    -7.080000000    -1.659000000     1.300000000
O     0.490000000     3.508000000    -1.698000000
H     1.225000000     2.898000000    -1.768000000
H     0.861000000     4.358000000    -1.934000000
O    -0.564000000     4.109000000     6.514000000
H    -1.342000000     3.554000000     6.566000000
H     0.156000000     3.499000000     6.354000000
O    -5.702000000    -1.735000000     5.052000000
H    -6.133000000    -1.757000000     5.907000000
H    -5.047000000    -1.042000000     5.131000000
O    -1.251000000    -0.032000000    -5.277000000
H    -0.473000000    -0.347000000    -4.816000000
H    -1.982000000    -0.287000000    -4.715000000
O    -4.278000000     0.328000000     2.428000000
H    -3.754000000     1.072000000     2.132000000
H    -5.148000000     0.486000000     2.061000000
O     0.985000000    -0.759000000     5.172000000
H     1.515000000    -1.177000000     5.851000000
H     0.080000000    -0.919000000     5.442000000
O     3.944000000     4.255000000    -0.790000000
H     3.416000000     5.053000000    -0.786000000
H     3.846000000     3.900000000     0.094000000
O     5.456000000    -2.972000000    -3.730000000
H     4.737000000    -2.657000000    -4.277000000
H     5.532000000    -2.319000000    -3.034000000
O    -2.586000000     4.382000000     3.937000000
H    -3.337000000     4.927000000     4.171000000
H    -2.092000000     4.291000000     4.752000000
O    -1.286000000     3.526000000     0.228000000
H    -0.638000000     3.269000000    -0.427000000
H    -0.846000000     3.392000000     1.067000000
O     3.066000000     3.581000000     1.671000000
H     3.528000000     2.784000000     1.930000000
H     3.629000000     4.294000000     1.974000000
O     0.345000000    -5.557000000     6.191000000
H     1.249000000    -5.743000000     5.938000000
H     0.135000000    -4.737000000     5.744000000
O     6.009000000    -0.970000000    -1.962000000
H     5.578000000    -1.236000000    -1.150000000
H     5.796000000    -0.041000000    -2.054000000
O    -3.425000000     2.780000000     1.771000000
H    -2.771000000     2.982000000     1.101000000
H    -3.087000000     3.190000000     2.567000000
