161
-3049.85388
C     0.134000000    -1.353000000    -0.674000000
H     0.121000000    -2.304000000    -1.200000000
C    -0.985000000    -0.462000000    -0.847000000
H    -1.893000000    -0.798000000    -1.341000000
C    -0.939000000     0.795000000    -0.218000000
C    -2.128000000     1.733000000    -0.273000000
H    -2.463000000     1.726000000    -1.312000000
H    -2.883000000     1.464000000     0.469000000
H    -1.712000000     2.734000000    -0.144000000
C     0.240000000     1.178000000     0.470000000
H     0.289000000     2.051000000     1.116000000
C     1.237000000     0.258000000     0.705000000
H     1.982000000     0.479000000     1.465000000
C     1.163000000    -0.976000000     0.170000000
C     2.340000000    -1.934000000     0.419000000
O     3.178000000    -1.513000000     1.197000000
O     2.320000000    -3.072000000     0.003000000
O    -5.057000000     4.193000000     4.549000000
H    -4.702000000     3.418000000     4.114000000
H    -4.742000000     4.928000000     4.023000000
O     4.365000000    -4.523000000     0.660000000
H     3.650000000    -3.980000000     0.328000000
H     4.456000000    -4.266000000     1.577000000
O    -4.259000000    -0.238000000     1.842000000
H    -4.982000000    -0.467000000     2.426000000
H    -4.281000000     0.718000000     1.797000000
O    -3.195000000    -4.841000000     1.935000000
H    -2.530000000    -5.112000000     1.302000000
H    -3.694000000    -5.638000000     2.115000000
O    -1.210000000     5.960000000    -2.517000000
H    -1.697000000     6.247000000    -3.289000000
H    -0.882000000     5.092000000    -2.749000000
O     1.631000000    -2.852000000     3.450000000
H     2.063000000    -2.517000000     2.665000000
H     0.699000000    -2.846000000     3.232000000
O     4.587000000     0.196000000    -0.307000000
H     4.630000000    -0.266000000    -1.144000000
H     4.097000000    -0.393000000     0.266000000
O    -1.447000000    -4.374000000    -4.274000000
H    -1.919000000    -4.806000000    -3.562000000
H    -0.543000000    -4.672000000    -4.178000000
O     3.117000000    -1.887000000     5.370000000
H     3.887000000    -1.810000000     4.807000000
H     2.443000000    -2.265000000     4.804000000
O     5.917000000    -4.722000000     3.498000000
H     6.469000000    -4.569000000     4.265000000
H     5.514000000    -3.872000000     3.319000000
O     0.971000000    -4.699000000    -3.086000000
H     1.420000000    -5.467000000    -3.440000000
H     0.895000000    -4.878000000    -2.149000000
O    -2.482000000    -6.148000000    -2.357000000
H    -2.351000000    -6.412000000    -1.446000000
H    -2.289000000    -6.936000000    -2.865000000
O     6.424000000     2.400000000    -0.029000000
H     7.181000000     1.818000000     0.037000000
H     5.675000000     1.811000000    -0.123000000
O     0.918000000     0.836000000    -2.713000000
H     0.382000000     0.447000000    -3.404000000
H     0.515000000     0.535000000    -1.899000000
O    -5.057000000     2.421000000     1.980000000
H    -4.588000000     2.915000000     1.308000000
H    -5.722000000     3.029000000     2.304000000
O     7.251000000    -1.263000000     1.623000000
H     7.729000000    -1.822000000     1.011000000
H     7.483000000    -0.371000000     1.364000000
O    -4.142000000    -2.382000000     0.262000000
H    -3.934000000    -1.589000000     0.757000000
H    -3.566000000    -3.052000000     0.631000000
O     6.442000000     0.111000000     4.701000000
H     7.045000000    -0.603000000     4.909000000
H     5.836000000    -0.266000000     4.062000000
O    -0.934000000    -0.879000000    -4.511000000
H    -1.408000000    -0.150000000    -4.911000000
H    -1.616000000    -1.416000000    -4.109000000
O     3.792000000     0.398000000     3.217000000
H     3.548000000    -0.002000000     2.382000000
H     3.076000000     0.170000000     3.809000000
O    -3.209000000    -2.384000000    -3.640000000
H    -2.748000000    -3.222000000    -3.646000000
H    -4.053000000    -2.578000000    -3.231000000
O     0.663000000     4.388000000    -0.651000000
H     1.101000000     4.038000000     0.125000000
H     1.308000000     4.974000000    -1.046000000
O    -1.145000000    -1.100000000     2.645000000
H    -0.489000000    -1.011000000     1.953000000
H    -1.978000000    -0.923000000     2.209000000
O     2.440000000    -0.906000000    -6.257000000
H     3.179000000    -0.300000000    -6.312000000
H     2.352000000    -1.093000000    -5.323000000
O     1.177000000    -5.410000000    -0.337000000
H     1.576000000    -4.569000000    -0.116000000
H     1.883000000    -6.047000000    -0.226000000
O     7.189000000    -3.426000000    -1.771000000
H     7.002000000    -3.681000000    -2.675000000
H     6.337000000    -3.180000000    -1.411000000
O    -1.227000000    -0.758000000     5.235000000
H    -1.412000000    -0.799000000     4.296000000
H    -2.062000000    -0.511000000     5.633000000
O     3.245000000     2.503000000    -2.916000000
H     4.004000000     1.924000000    -2.979000000
H     2.534000000     1.934000000    -2.623000000
O    -0.038000000     3.849000000    -4.046000000
H    -0.917000000     3.486000000    -4.155000000
H     0.509000000     3.093000000    -3.830000000
O     5.299000000    -5.880000000    -2.926000000
H     4.432000000    -5.845000000    -3.329000000
H     5.234000000    -6.580000000    -2.277000000
O     0.118000000     7.819000000    -1.028000000
H     0.953000000     7.653000000    -1.467000000
H    -0.468000000     7.141000000    -1.366000000
O    -1.270000000    -5.787000000     0.346000000
H    -0.358000000    -5.577000000     0.146000000
H    -1.233000000    -6.657000000     0.744000000
O    -2.340000000     5.302000000     2.918000000
H    -1.800000000     5.152000000     2.142000000
H    -3.109000000     5.766000000     2.588000000
O     4.977000000     2.733000000     2.301000000
H     4.921000000     1.892000000     2.755000000
H     5.579000000     2.573000000     1.574000000
O     1.202000000    -2.326000000    -4.189000000
H     1.049000000    -3.264000000    -4.078000000
H     0.334000000    -1.961000000    -4.363000000
O    -6.244000000     0.773000000    -1.971000000
H    -6.424000000    -0.012000000    -1.454000000
H    -5.548000000     1.222000000    -1.491000000
O    -5.316000000    -2.977000000    -2.204000000
H    -4.926000000    -2.928000000    -1.331000000
H    -6.201000000    -2.631000000    -2.091000000
O    -2.489000000     2.575000000    -4.049000000
H    -3.140000000     2.740000000    -4.731000000
H    -2.862000000     1.863000000    -3.529000000
O     5.068000000    -2.130000000     2.930000000
H     4.431000000    -1.877000000     2.261000000
H     5.918000000    -1.927000000     2.540000000
O     3.350000000    -7.197000000    -0.095000000
H     4.076000000    -7.821000000    -0.095000000
H     3.675000000    -6.452000000     0.411000000
O    -4.618000000     4.951000000    -2.926000000
H    -3.988000000     5.337000000    -3.535000000
H    -5.029000000     4.243000000    -3.423000000
O    -3.991000000     0.273000000    -3.560000000
H    -3.687000000    -0.630000000    -3.656000000
H    -4.920000000     0.191000000    -3.344000000
O     0.600000000     3.707000000     4.226000000
H     1.502000000     3.654000000     4.539000000
H     0.677000000     4.028000000     3.327000000
O     3.580000000    -2.545000000    -2.673000000
H     3.313000000    -3.065000000    -1.915000000
H     2.845000000    -2.614000000    -3.282000000
O    -2.789000000     6.759000000    -0.237000000
H    -2.363000000     6.629000000    -1.084000000
H    -2.410000000     7.570000000     0.100000000
O     1.298000000     0.525000000     4.760000000
H     1.033000000     1.428000000     4.585000000
H     0.477000000     0.034000000     4.783000000
O    -4.521000000     4.326000000    -0.015000000
H    -4.215000000     5.126000000     0.412000000
H    -4.228000000     4.411000000    -0.922000000
O     2.228000000     3.728000000     1.501000000
H     2.526000000     4.417000000     2.095000000
H     2.962000000     3.115000000     1.458000000
