161
-3045.81654
C    -1.082000000    -0.932000000    -0.630000000
H    -1.832000000    -1.460000000    -1.213000000
C    -1.060000000     0.478000000    -0.733000000
H    -1.771000000     1.019000000    -1.353000000
C    -0.077000000     1.250000000    -0.049000000
C     0.061000000     2.766000000    -0.313000000
H    -0.472000000     3.263000000     0.500000000
H     1.084000000     3.145000000    -0.263000000
H    -0.441000000     2.971000000    -1.261000000
C     0.859000000     0.621000000     0.737000000
H     1.602000000     1.073000000     1.390000000
C     0.914000000    -0.817000000     0.822000000
H     1.617000000    -1.239000000     1.536000000
C    -0.002000000    -1.576000000     0.101000000
C     0.105000000    -3.094000000     0.255000000
O     1.095000000    -3.595000000     0.798000000
O    -0.601000000    -3.877000000    -0.329000000
O     1.303000000    -6.288000000     1.010000000
H     1.259000000    -5.332000000     1.009000000
H     0.392000000    -6.570000000     1.089000000
O    -1.932000000    -0.631000000     2.311000000
H    -1.404000000    -0.949000000     3.044000000
H    -1.315000000    -0.570000000     1.581000000
O     6.272000000    -2.471000000     1.886000000
H     5.374000000    -2.675000000     1.625000000
H     6.376000000    -1.542000000     1.680000000
O    -3.748000000    -2.226000000     0.894000000
H    -3.202000000    -1.516000000     1.233000000
H    -4.368000000    -1.792000000     0.308000000
O    -2.073000000    -3.291000000    -4.956000000
H    -2.346000000    -3.490000000    -4.061000000
H    -2.557000000    -2.498000000    -5.184000000
O     0.413000000    -5.484000000     4.807000000
H     0.032000000    -6.300000000     4.485000000
H     0.999000000    -5.755000000     5.514000000
O    -0.962000000    -8.609000000    -0.810000000
H    -1.611000000    -8.010000000    -0.441000000
H    -0.291000000    -8.683000000    -0.132000000
O    -3.664000000    -4.800000000     1.903000000
H    -3.121000000    -4.574000000     2.658000000
H    -3.853000000    -3.961000000     1.483000000
O     0.726000000     6.611000000    -0.294000000
H     1.415000000     6.832000000    -0.920000000
H     0.252000000     5.888000000    -0.705000000
O     3.096000000     6.656000000    -1.965000000
H     3.144000000     5.744000000    -2.250000000
H     3.477000000     7.154000000    -2.688000000
O    -4.701000000    -1.733000000    -1.583000000
H    -5.304000000    -1.940000000    -2.297000000
H    -3.991000000    -2.368000000    -1.678000000
O     0.232000000     4.841000000    -3.169000000
H    -0.676000000     4.951000000    -2.888000000
H     0.360000000     5.515000000    -3.837000000
O    -4.393000000    -5.822000000    -2.444000000
H    -5.204000000    -5.956000000    -2.933000000
H    -3.699000000    -6.046000000    -3.064000000
O    -2.821000000     1.291000000     4.136000000
H    -2.630000000     0.635000000     3.465000000
H    -2.023000000     1.817000000     4.190000000
O     6.229000000    -2.179000000    -1.206000000
H     5.987000000    -3.045000000    -1.535000000
H     5.572000000    -1.984000000    -0.539000000
O     3.481000000    -0.748000000    -1.223000000
H     2.609000000    -0.567000000    -0.873000000
H     3.537000000    -1.703000000    -1.245000000
O    -4.364000000     1.035000000    -2.679000000
H    -4.939000000     1.659000000    -2.236000000
H    -4.539000000     0.200000000    -2.246000000
O     4.632000000    -5.151000000    -1.797000000
H     3.930000000    -5.695000000    -1.440000000
H     5.430000000    -5.655000000    -1.637000000
O     3.066000000    -1.151000000     4.558000000
H     2.806000000    -1.347000000     5.458000000
H     2.701000000    -1.869000000     4.042000000
O     5.200000000     0.291000000     4.837000000
H     4.465000000    -0.262000000     4.571000000
H     5.030000000     0.487000000     5.759000000
O    -3.506000000     2.617000000    -5.098000000
H    -3.431000000     3.499000000    -4.734000000
H    -3.649000000     2.055000000    -4.337000000
O    -2.943000000     5.033000000     2.476000000
H    -2.844000000     4.838000000     1.545000000
H    -2.098000000     5.402000000     2.735000000
O    -3.052000000     5.090000000    -3.955000000
H    -2.659000000     5.020000000    -3.085000000
H    -3.369000000     5.992000000    -4.003000000
O    -0.110000000     5.400000000     2.816000000
H     0.168000000     5.341000000     3.730000000
H     0.683000000     5.645000000     2.340000000
O    -2.567000000    -3.611000000    -2.341000000
H    -1.838000000    -3.633000000    -1.721000000
H    -3.227000000    -4.185000000    -1.954000000
O    -0.275000000     0.033000000    -4.684000000
H     0.228000000    -0.005000000    -5.497000000
H    -0.083000000    -0.796000000    -4.245000000
O     0.683000000    -2.372000000    -3.656000000
H     0.059000000    -3.017000000    -3.324000000
H     1.490000000    -2.548000000    -3.172000000
O     2.930000000     2.776000000     3.834000000
H     2.897000000     2.154000000     4.561000000
H     3.138000000     3.615000000     4.246000000
O     3.938000000    -3.273000000     1.019000000
H     2.992000000    -3.226000000     0.882000000
H     4.089000000    -4.159000000     1.350000000
O     3.096000000     4.174000000    -2.924000000
H     3.463000000     3.568000000    -2.280000000
H     2.149000000     4.051000000    -2.855000000
O     0.883000000     2.683000000    -5.162000000
H     0.311000000     1.915000000    -5.140000000
H     0.517000000     3.272000000    -4.502000000
O     0.767000000    -5.134000000    -2.090000000
H     0.439000000    -4.759000000    -1.272000000
H     0.144000000    -5.830000000    -2.301000000
O    -5.356000000     3.505000000     2.445000000
H    -5.295000000     2.784000000     3.072000000
H    -4.570000000     4.028000000     2.603000000
O    -2.021000000     5.860000000    -1.594000000
H    -2.712000000     5.400000000    -1.117000000
H    -1.999000000     6.733000000    -1.202000000
O     5.891000000     0.168000000     0.907000000
H     5.406000000     0.920000000     1.245000000
H     6.794000000     0.477000000     0.837000000
O     1.684000000    -3.295000000     3.455000000
H     1.133000000    -3.880000000     3.976000000
H     1.421000000    -3.462000000     2.550000000
O     4.232000000     2.245000000     1.669000000
H     3.708000000     2.540000000     2.414000000
H     4.785000000     2.996000000     1.453000000
O    -0.264000000    -0.716000000     4.671000000
H     0.552000000    -1.101000000     4.990000000
H    -0.088000000     0.225000000     4.637000000
O     3.782000000     1.969000000    -1.322000000
H     4.191000000     2.272000000    -0.512000000
H     3.675000000     1.026000000    -1.198000000
O     2.817000000    -3.255000000    -2.127000000
H     3.562000000    -3.807000000    -1.891000000
H     2.059000000    -3.835000000    -2.062000000
O    -0.271000000     2.119000000     4.361000000
H    -0.543000000     2.958000000     4.732000000
H     0.404000000     2.346000000     3.722000000
O    -4.289000000     5.144000000    -0.253000000
H    -4.805000000     4.434000000    -0.634000000
H    -4.913000000     5.632000000     0.284000000
O     3.061000000    -6.602000000     3.111000000
H     2.284000000    -6.663000000     2.556000000
H     3.796000000    -6.639000000     2.499000000
O    -6.644000000    -1.269000000     0.095000000
H    -6.074000000    -1.396000000    -0.664000000
H    -7.346000000    -1.910000000    -0.023000000
O     2.551000000    -7.312000000    -2.437000000
H     1.953000000    -6.565000000    -2.480000000
H     2.216000000    -7.846000000    -1.716000000
O    -1.374000000    -6.171000000     0.737000000
H    -2.087000000    -6.131000000     1.373000000
H    -1.274000000    -5.269000000     0.431000000
O    -3.023000000    -0.829000000    -4.845000000
H    -2.209000000    -0.333000000    -4.757000000
H    -3.619000000    -0.422000000    -4.216000000
O     4.325000000    -4.480000000     4.392000000
H     4.014000000    -3.674000000     3.978000000
H     3.627000000    -5.115000000     4.232000000
