161
-3055.59474
C     0.082000000    -1.429000000     0.470000000
H    -0.009000000    -2.483000000     0.721000000
C    -1.017000000    -0.807000000    -0.125000000
H    -1.927000000    -1.394000000    -0.217000000
C    -0.966000000     0.528000000    -0.471000000
C    -2.156000000     1.185000000    -1.192000000
H    -3.064000000     0.897000000    -0.658000000
H    -2.180000000     2.277000000    -1.175000000
H    -2.171000000     0.771000000    -2.202000000
C     0.137000000     1.288000000    -0.237000000
H     0.181000000     2.347000000    -0.478000000
C     1.179000000     0.669000000     0.340000000
H     2.040000000     1.278000000     0.603000000
C     1.214000000    -0.690000000     0.676000000
C     2.527000000    -1.318000000     1.203000000
O     3.471000000    -0.627000000     1.326000000
O     2.663000000    -2.491000000     1.414000000
O     4.226000000    -4.086000000     3.087000000
H     3.702000000    -3.396000000     2.680000000
H     4.193000000    -3.890000000     4.024000000
O    -3.867000000     0.353000000     2.106000000
H    -4.529000000     0.218000000     2.784000000
H    -4.059000000     1.222000000     1.753000000
O    -3.681000000    -2.750000000     1.485000000
H    -2.937000000    -2.155000000     1.390000000
H    -3.380000000    -3.574000000     1.104000000
O    -3.864000000     7.020000000    -2.291000000
H    -3.452000000     6.157000000    -2.241000000
H    -3.416000000     7.458000000    -3.014000000
O     4.651000000     1.053000000    -0.513000000
H     5.208000000     0.635000000    -1.171000000
H     4.296000000     0.325000000    -0.003000000
O    -2.123000000    -3.629000000    -2.117000000
H    -2.832000000    -4.127000000    -1.709000000
H    -1.326000000    -3.975000000    -1.715000000
O    -4.681000000     1.496000000    -4.272000000
H    -4.639000000     0.868000000    -3.551000000
H    -4.105000000     1.130000000    -4.943000000
O     0.902000000     4.135000000    -1.870000000
H     0.958000000     3.180000000    -1.888000000
H     1.718000000     4.431000000    -2.275000000
O     0.079000000    -4.794000000    -1.149000000
H    -0.021000000    -5.662000000    -1.539000000
H     0.058000000    -4.952000000    -0.205000000
O    -3.767000000    -4.885000000    -0.448000000
H    -3.849000000    -5.838000000    -0.416000000
H    -4.648000000    -4.576000000    -0.659000000
O     0.440000000    -0.810000000    -2.883000000
H    -0.326000000    -1.051000000    -3.404000000
H     0.112000000    -0.756000000    -1.986000000
O    -5.541000000     2.533000000     1.775000000
H    -6.451000000     2.331000000     1.558000000
H    -5.589000000     3.346000000     2.278000000
O     1.888000000     4.377000000    -5.000000000
H     1.901000000     3.524000000    -4.566000000
H     1.297000000     4.259000000    -5.743000000
O     6.163000000     1.104000000     2.378000000
H     5.344000000     1.325000000     1.935000000
H     6.128000000     0.154000000     2.487000000
O     4.710000000    -2.865000000    -3.265000000
H     5.140000000    -3.719000000    -3.219000000
H     3.797000000    -3.044000000    -3.040000000
O    -6.007000000    -1.556000000     1.121000000
H    -5.677000000    -0.657000000     1.125000000
H    -5.254000000    -2.089000000     1.377000000
O     5.571000000     1.713000000     5.163000000
H     4.953000000     1.017000000     5.385000000
H     5.845000000     1.513000000     4.268000000
O    -1.891000000    -1.778000000    -3.922000000
H    -2.729000000    -1.546000000    -4.322000000
H    -2.112000000    -2.446000000    -3.273000000
O     3.381000000     1.487000000     3.377000000
H     3.594000000     0.558000000     3.288000000
H     2.424000000     1.515000000     3.380000000
O    -4.729000000    -1.378000000    -1.529000000
H    -4.209000000    -1.938000000    -2.107000000
H    -5.369000000    -1.970000000    -1.134000000
O     1.710000000     5.821000000     1.136000000
H     1.493000000     6.445000000     0.444000000
H     2.122000000     5.088000000     0.678000000
O    -1.455000000    -0.386000000     2.998000000
H    -0.944000000    -0.194000000     2.212000000
H    -2.296000000     0.046000000     2.848000000
O     1.355000000    -4.828000000     1.653000000
H     1.766000000    -3.969000000     1.556000000
H     2.037000000    -5.378000000     2.039000000
O    -3.683000000     3.706000000    -3.139000000
H    -4.173000000     3.748000000    -2.318000000
H    -4.285000000     3.290000000    -3.756000000
O    -4.119000000    -3.295000000     4.234000000
H    -5.074000000    -3.227000000     4.261000000
H    -3.872000000    -2.881000000     3.408000000
O     4.432000000    -3.719000000    -0.084000000
H     3.730000000    -3.250000000     0.366000000
H     4.087000000    -3.882000000    -0.962000000
O     1.950000000     1.957000000    -3.362000000
H     2.625000000     1.516000000    -3.877000000
H     1.232000000     1.326000000    -3.316000000
O     5.632000000    -0.409000000    -2.566000000
H     6.571000000    -0.572000000    -2.660000000
H     5.224000000    -1.256000000    -2.746000000
O     7.134000000     2.232000000    -0.905000000
H     7.628000000     1.433000000    -0.722000000
H     6.261000000     2.060000000    -0.553000000
O    -4.557000000    -1.438000000    -4.777000000
H    -4.617000000    -1.716000000    -5.691000000
H    -5.464000000    -1.433000000    -4.469000000
O    -1.755000000     5.164000000    -1.434000000
H    -2.463000000     4.527000000    -1.534000000
H    -1.024000000     4.657000000    -1.083000000
O     6.978000000    -2.217000000     0.392000000
H     6.419000000    -2.834000000    -0.080000000
H     6.606000000    -2.183000000     1.273000000
O    -0.808000000    -4.361000000     3.063000000
H    -0.032000000    -4.496000000     2.520000000
H    -1.298000000    -5.181000000     2.989000000
O     5.859000000    -5.534000000     1.082000000
H     6.534000000    -5.088000000     1.593000000
H     5.369000000    -4.826000000     0.664000000
O     4.804000000     3.795000000     1.975000000
H     4.524000000     2.993000000     2.414000000
H     4.314000000     3.802000000     1.153000000
O    -4.566000000     4.135000000    -0.517000000
H    -4.200000000     4.744000000     0.125000000
H    -4.601000000     3.296000000    -0.058000000
O     3.653000000     3.549000000    -0.610000000
H     3.820000000     2.606000000    -0.591000000
H     4.332000000     3.901000000    -1.186000000
O     5.612000000    -1.680000000     2.662000000
H     4.801000000    -1.429000000     2.218000000
H     5.474000000    -2.593000000     2.913000000
O    -2.086000000     4.253000000    -5.241000000
H    -1.864000000     5.145000000    -4.975000000
H    -2.647000000     3.926000000    -4.538000000
O     3.045000000    -6.050000000    -1.120000000
H     2.498000000    -5.947000000    -0.342000000
H     2.962000000    -6.976000000    -1.350000000
O    -7.274000000     3.897000000    -2.149000000
H    -7.307000000     4.765000000    -1.747000000
H    -6.467000000     3.508000000    -1.813000000
O    -0.773000000     5.857000000     2.886000000
H    -0.750000000     6.322000000     3.723000000
H     0.146000000     5.679000000     2.686000000
O    -5.513000000     1.331000000    -1.068000000
H    -5.153000000     0.444000000    -1.078000000
H    -6.461000000     1.205000000    -1.117000000
O     3.384000000    -6.603000000     2.654000000
H     3.978000000    -5.856000000     2.580000000
H     3.916000000    -7.358000000     2.403000000
O     2.148000000    -3.029000000    -2.200000000
H     1.617000000    -3.795000000    -1.981000000
H     1.554000000    -2.286000000    -2.091000000
O     0.031000000    -1.958000000     4.560000000
H    -0.526000000    -1.425000000     3.993000000
H     0.087000000    -2.804000000     4.115000000
O     0.734000000     0.957000000     3.960000000
H    -0.205000000     0.789000000     3.885000000
H     1.007000000     0.452000000     4.726000000
O     1.657000000     4.502000000     3.933000000
H     1.821000000     3.662000000     3.504000000
H     2.489000000     4.721000000     4.353000000
