161
-3057.54198
C    -1.139000000    -0.878000000     0.343000000
H    -1.996000000    -1.545000000     0.394000000
C    -1.265000000     0.388000000    -0.249000000
H    -2.257000000     0.690000000    -0.574000000
C    -0.072000000     1.093000000    -0.470000000
C    -0.176000000     2.377000000    -1.327000000
H    -1.166000000     2.798000000    -1.139000000
H     0.516000000     3.191000000    -1.104000000
H    -0.140000000     2.059000000    -2.371000000
C     1.171000000     0.580000000    -0.129000000
H     2.099000000     1.060000000    -0.429000000
C     1.303000000    -0.649000000     0.453000000
H     2.265000000    -1.082000000     0.716000000
C     0.141000000    -1.303000000     0.762000000
C     0.198000000    -2.597000000     1.522000000
O     1.232000000    -2.888000000     2.082000000
O    -0.721000000    -3.299000000     1.513000000
O     3.454000000     4.783000000    -3.419000000
H     3.330000000     5.726000000    -3.524000000
H     4.313000000     4.699000000    -3.005000000
O    -3.708000000     2.703000000    -4.249000000
H    -4.266000000     2.055000000    -3.820000000
H    -3.944000000     2.648000000    -5.175000000
O     4.147000000     2.586000000     0.317000000
H     5.006000000     2.822000000    -0.031000000
H     3.718000000     2.118000000    -0.399000000
O    -4.503000000     0.861000000     0.914000000
H    -4.185000000     0.461000000     1.723000000
H    -5.453000000     0.903000000     1.025000000
O    -3.374000000     0.192000000     3.434000000
H    -3.387000000    -0.728000000     3.696000000
H    -2.453000000     0.446000000     3.499000000
O     4.191000000     0.617000000    -1.977000000
H     4.358000000     0.318000000    -2.871000000
H     4.829000000     0.143000000    -1.443000000
O    -4.298000000     2.777000000    -1.121000000
H    -4.264000000     2.049000000    -0.501000000
H    -4.446000000     2.362000000    -1.970000000
O     5.382000000     0.883000000     2.904000000
H     6.213000000     1.186000000     2.538000000
H     5.594000000     0.629000000     3.802000000
O     5.970000000    -1.127000000     1.012000000
H     5.390000000    -0.594000000     1.556000000
H     6.120000000    -1.919000000     1.528000000
O     1.120000000     6.843000000     1.437000000
H     0.635000000     6.499000000     0.687000000
H     1.537000000     7.639000000     1.107000000
O     3.832000000    -5.032000000    -0.556000000
H     2.904000000    -5.208000000    -0.711000000
H     4.218000000    -5.896000000    -0.411000000
O     4.946000000    -2.794000000    -1.417000000
H     4.486000000    -3.562000000    -1.078000000
H     5.335000000    -2.387000000    -0.642000000
O     1.933000000    -1.882000000     4.477000000
H     2.619000000    -1.246000000     4.274000000
H     1.566000000    -2.119000000     3.625000000
O     1.229000000    -5.942000000    -1.157000000
H     1.202000000    -6.555000000    -1.891000000
H     0.731000000    -5.183000000    -1.461000000
O     4.171000000    -6.173000000     4.307000000
H     3.801000000    -5.462000000     4.830000000
H     3.444000000    -6.473000000     3.761000000
O    -1.141000000    -4.267000000     3.804000000
H    -0.830000000    -3.915000000     2.970000000
H    -0.343000000    -4.462000000     4.294000000
O    -4.678000000    -5.656000000    -1.197000000
H    -5.478000000    -5.958000000    -0.767000000
H    -4.272000000    -5.066000000    -0.562000000
O    -1.402000000    -7.236000000     4.017000000
H    -1.485000000    -6.297000000     3.851000000
H    -0.460000000    -7.383000000     4.096000000
O     1.036000000     3.610000000    -4.210000000
H     1.158000000     2.676000000    -4.040000000
H     1.920000000     3.976000000    -4.179000000
O    -0.740000000    -4.048000000    -1.876000000
H    -1.289000000    -3.311000000    -2.143000000
H    -0.780000000    -4.043000000    -0.919000000
O    -2.864000000    -2.320000000     4.430000000
H    -2.079000000    -2.660000000     4.001000000
H    -3.252000000    -3.083000000     4.858000000
O    -1.577000000     4.556000000    -4.486000000
H    -0.827000000     3.977000000    -4.348000000
H    -2.333000000     3.969000000    -4.498000000
O    -3.348000000    -0.471000000    -4.815000000
H    -2.451000000    -0.531000000    -5.143000000
H    -3.892000000    -0.749000000    -5.552000000
O    -0.684000000    -0.730000000    -3.474000000
H     0.232000000    -0.817000000    -3.737000000
H    -0.659000000    -0.162000000    -2.704000000
O     0.740000000     5.782000000    -5.994000000
H     0.368000000     5.062000000    -5.484000000
H     0.756000000     6.522000000    -5.387000000
O    -1.759000000    -7.458000000     0.657000000
H    -1.457000000    -8.278000000     1.048000000
H    -1.424000000    -7.483000000    -0.239000000
O    -2.752000000     3.065000000     1.863000000
H    -3.276000000     2.513000000     1.284000000
H    -2.288000000     2.447000000     2.429000000
O     0.434000000    -4.024000000     6.082000000
H     1.322000000    -4.204000000     5.773000000
H     0.435000000    -3.088000000     6.283000000
O    -0.801000000     1.425000000     3.320000000
H    -0.250000000     1.769000000     4.023000000
H    -0.193000000     0.964000000     2.742000000
O     3.160000000     3.510000000     2.538000000
H     3.458000000     3.063000000     1.746000000
H     3.573000000     4.372000000     2.496000000
O     3.029000000    -4.065000000     5.420000000
H     2.855000000    -3.177000000     5.108000000
H     3.668000000    -3.950000000     6.124000000
O     6.326000000     2.741000000    -1.485000000
H     7.276000000     2.653000000    -1.408000000
H     6.027000000     1.873000000    -1.757000000
O    -2.576000000     5.120000000    -0.424000000
H    -3.083000000     5.606000000     0.226000000
H    -2.906000000     4.224000000    -0.364000000
O    -2.801000000    -5.594000000    -2.973000000
H    -2.304000000    -4.854000000    -2.622000000
H    -3.481000000    -5.757000000    -2.319000000
O    -2.803000000    -2.494000000    -2.657000000
H    -2.891000000    -1.838000000    -3.350000000
H    -3.330000000    -2.151000000    -1.936000000
O    -4.804000000    -3.357000000     2.419000000
H    -3.983000000    -3.820000000     2.586000000
H    -5.432000000    -4.049000000     2.216000000
O    -4.521000000    -1.860000000    -0.412000000
H    -4.226000000    -0.953000000    -0.336000000
H    -4.689000000    -2.133000000     0.490000000
O     3.956000000    -3.486000000     1.924000000
H     3.899000000    -4.091000000     1.184000000
H     3.053000000    -3.211000000     2.080000000
O     2.613000000     0.663000000     2.939000000
H     2.363000000     0.680000000     2.016000000
H     3.530000000     0.938000000     2.944000000
O    -3.622000000     5.459000000     2.330000000
H    -3.018000000     6.082000000     2.735000000
H    -3.078000000     4.700000000     2.121000000
O     1.639000000     0.950000000    -3.790000000
H     1.897000000     0.164000000    -4.271000000
H     2.137000000     0.906000000    -2.974000000
O    -5.234000000     5.382000000    -2.585000000
H    -5.551000000     5.714000000    -1.744000000
H    -4.660000000     4.652000000    -2.353000000
O     1.935000000    -5.710000000     2.292000000
H     1.889000000    -4.856000000     2.722000000
H     1.439000000    -5.597000000     1.482000000
O    -5.122000000     0.796000000    -3.081000000
H    -4.534000000     0.192000000    -3.534000000
H    -5.953000000     0.719000000    -3.551000000
O     6.522000000    -3.475000000     2.516000000
H     6.761000000    -4.369000000     2.759000000
H     5.583000000    -3.520000000     2.332000000
O    -2.938000000    -4.698000000     0.905000000
H    -2.458000000    -3.885000000     1.064000000
H    -2.344000000    -5.388000000     1.200000000
O    -2.449000000     6.763000000    -3.176000000
H    -2.826000000     6.275000000    -2.443000000
H    -1.981000000     6.103000000    -3.687000000
O    -0.198000000     6.064000000    -0.757000000
H     0.188000000     5.340000000    -1.251000000
H    -1.088000000     5.772000000    -0.561000000
