161
-3054.08642
C    -0.995000000    -0.781000000    -0.764000000
H    -1.714000000    -1.258000000    -1.424000000
C    -0.785000000     0.570000000    -0.831000000
H    -1.372000000     1.204000000    -1.492000000
C     0.282000000     1.146000000    -0.161000000
C     0.361000000     2.658000000    -0.315000000
H     1.302000000     2.962000000     0.147000000
H     0.436000000     2.903000000    -1.377000000
H    -0.489000000     3.053000000     0.245000000
C     0.999000000     0.491000000     0.772000000
H     1.817000000     0.979000000     1.294000000
C     0.766000000    -0.875000000     0.934000000
H     1.332000000    -1.441000000     1.669000000
C    -0.239000000    -1.541000000     0.162000000
C    -0.540000000    -2.966000000     0.351000000
O    -0.006000000    -3.569000000     1.301000000
O    -1.163000000    -3.537000000    -0.506000000
O    -0.377000000    -5.965000000     2.739000000
H    -0.168000000    -5.736000000     3.645000000
H    -0.300000000    -5.141000000     2.259000000
O    -4.848000000    -0.471000000     2.794000000
H    -4.360000000     0.066000000     2.171000000
H    -4.727000000    -1.368000000     2.482000000
O    -1.875000000     0.810000000     2.044000000
H    -1.768000000     0.169000000     2.747000000
H    -1.305000000     0.495000000     1.343000000
O     0.149000000     0.726000000    -6.571000000
H    -0.407000000     0.437000000    -5.848000000
H     0.060000000     1.679000000    -6.576000000
O    -4.059000000     1.424000000    -3.880000000
H    -4.491000000     0.701000000    -3.424000000
H    -4.555000000     2.201000000    -3.622000000
O     5.251000000    -0.802000000     2.326000000
H     4.969000000    -0.069000000     1.780000000
H     4.708000000    -0.738000000     3.112000000
O    -5.189000000    -3.273000000     1.917000000
H    -4.385000000    -3.558000000     2.350000000
H    -5.862000000    -3.339000000     2.594000000
O     0.235000000     3.560000000    -6.255000000
H     0.433000000     3.789000000    -5.347000000
H     1.065000000     3.677000000    -6.718000000
O     2.860000000     2.061000000    -2.445000000
H     3.423000000     2.443000000    -1.772000000
H     3.024000000     1.120000000    -2.391000000
O     0.714000000    -5.306000000     5.113000000
H    -0.080000000    -5.603000000     5.558000000
H     1.397000000    -5.901000000     5.420000000
O    -1.429000000    -7.560000000    -1.212000000
H    -1.974000000    -8.110000000    -0.649000000
H    -0.541000000    -7.896000000    -1.088000000
O    -5.538000000    -2.263000000    -0.591000000
H    -4.974000000    -2.681000000    -1.242000000
H    -5.539000000    -2.868000000     0.150000000
O    -3.644000000    -3.382000000    -2.164000000
H    -3.494000000    -2.869000000    -2.958000000
H    -2.785000000    -3.429000000    -1.744000000
O     5.558000000     2.253000000    -0.908000000
H     5.789000000     1.556000000    -1.523000000
H     6.339000000     2.805000000    -0.868000000
O    -0.224000000     7.089000000     0.490000000
H    -0.471000000     8.012000000     0.543000000
H    -0.276000000     6.775000000     1.392000000
O    -2.669000000     3.258000000     3.345000000
H    -2.420000000     2.594000000     2.701000000
H    -1.837000000     3.590000000     3.681000000
O     3.577000000    -2.688000000     0.994000000
H     4.110000000    -1.944000000     1.276000000
H     3.054000000    -2.913000000     1.764000000
O     3.272000000    -0.672000000    -1.882000000
H     2.998000000    -0.372000000    -1.016000000
H     3.015000000    -1.593000000    -1.909000000
O     3.137000000    -0.270000000     4.317000000
H     2.211000000    -0.495000000     4.229000000
H     3.271000000    -0.169000000     5.259000000
O     5.589000000     2.609000000     4.275000000
H     5.033000000     2.124000000     4.884000000
H     5.418000000     2.207000000     3.423000000
O    -1.170000000    -8.497000000     2.570000000
H    -0.471000000    -8.982000000     2.131000000
H    -0.844000000    -7.598000000     2.617000000
O    -3.592000000    -4.215000000    -5.449000000
H    -2.836000000    -4.776000000    -5.618000000
H    -3.236000000    -3.476000000    -4.955000000
O    -3.607000000     6.139000000     0.308000000
H    -4.532000000     5.937000000     0.169000000
H    -3.280000000     6.379000000    -0.559000000
O    -2.796000000     6.222000000     2.982000000
H    -2.910000000     5.404000000     3.465000000
H    -3.056000000     6.010000000     2.086000000
O    -2.586000000    -5.668000000     0.341000000
H    -2.352000000    -4.817000000    -0.030000000
H    -2.147000000    -6.304000000    -0.224000000
O    -0.136000000    -0.619000000    -4.058000000
H    -0.376000000     0.293000000    -3.897000000
H     0.532000000    -0.811000000    -3.399000000
O     2.411000000    -3.205000000    -2.594000000
H     1.611000000    -3.706000000    -2.754000000
H     2.993000000    -3.819000000    -2.146000000
O     2.093000000    -4.863000000    -0.065000000
H     2.604000000    -4.150000000     0.320000000
H     1.294000000    -4.896000000     0.461000000
O     1.931000000     6.263000000    -0.941000000
H     1.153000000     6.473000000    -0.424000000
H     2.572000000     5.962000000    -0.297000000
O    -1.302000000     2.015000000    -4.276000000
H    -2.126000000     1.942000000    -3.794000000
H    -1.166000000     2.957000000    -4.377000000
O    -1.457000000    -5.607000000    -4.729000000
H    -0.723000000    -5.972000000    -5.223000000
H    -1.046000000    -5.062000000    -4.058000000
O    -1.965000000     4.864000000    -2.214000000
H    -1.129000000     4.567000000    -1.856000000
H    -2.598000000     4.210000000    -1.919000000
O    -3.931000000    -6.662000000    -3.273000000
H    -4.443000000    -6.271000000    -2.565000000
H    -3.284000000    -5.993000000    -3.499000000
O     4.684000000     2.138000000     1.654000000
H     4.175000000     2.865000000     2.012000000
H     5.021000000     2.467000000     0.821000000
O     2.085000000    -3.566000000     3.281000000
H     1.717000000    -3.980000000     4.062000000
H     1.331000000    -3.421000000     2.709000000
O     3.498000000     5.739000000     1.435000000
H     2.941000000     5.675000000     2.210000000
H     3.972000000     6.563000000     1.548000000
O    -1.262000000    -1.971000000     3.578000000
H    -0.974000000    -2.399000000     2.771000000
H    -0.468000000    -1.572000000     3.934000000
O     1.373000000     3.994000000    -3.784000000
H     1.837000000     3.262000000    -3.378000000
H     1.512000000     4.727000000    -3.184000000
O    -0.290000000     4.215000000     4.553000000
H    -0.752000000     4.776000000     5.176000000
H     0.291000000     4.810000000     4.080000000
O    -3.508000000     2.921000000    -1.264000000
H    -4.419000000     2.920000000    -1.556000000
H    -3.438000000     2.156000000    -0.692000000
O     4.168000000    -6.378000000     1.810000000
H     3.964000000    -7.271000000     2.087000000
H     3.625000000    -6.238000000     1.033000000
O    -4.879000000     0.478000000    -0.421000000
H    -5.653000000     0.775000000    -0.900000000
H    -5.011000000    -0.463000000    -0.313000000
O     0.153000000    -4.836000000    -2.533000000
H     0.362000000    -5.659000000    -2.090000000
H    -0.252000000    -4.296000000    -1.855000000
O     0.487000000    -0.331000000     4.760000000
H     0.365000000     0.615000000     4.677000000
H     0.472000000    -0.492000000     5.704000000
O    -3.022000000    -4.870000000     2.940000000
H    -2.987000000    -5.124000000     2.018000000
H    -2.108000000    -4.874000000     3.225000000
O    -5.371000000     2.966000000     1.802000000
H    -5.169000000     2.396000000     1.060000000
H    -4.521000000     3.149000000     2.202000000
O    -2.709000000    -1.802000000    -4.329000000
H    -1.826000000    -1.445000000    -4.228000000
H    -3.084000000    -1.310000000    -5.059000000
O     4.468000000    -3.740000000     4.462000000
H     4.475000000    -4.642000000     4.142000000
H     3.664000000    -3.365000000     4.102000000
