161
-3029.39491
C    -0.892000000    -1.152000000    -0.123000000
H    -1.542000000    -2.002000000    -0.311000000
C    -1.122000000     0.129000000    -0.667000000
H    -2.063000000     0.266000000    -1.192000000
C    -0.209000000     1.097000000    -0.489000000
C    -0.527000000     2.485000000    -1.135000000
H    -1.585000000     2.757000000    -1.124000000
H    -0.035000000     3.302000000    -0.603000000
H    -0.002000000     2.433000000    -2.091000000
C     0.973000000     0.836000000     0.263000000
H     1.759000000     1.586000000     0.295000000
C     1.207000000    -0.355000000     0.903000000
H     2.105000000    -0.612000000     1.459000000
C     0.263000000    -1.406000000     0.653000000
C     0.516000000    -2.773000000     1.223000000
O     1.408000000    -2.954000000     2.027000000
O    -0.258000000    -3.636000000     0.920000000
O    -2.093000000    -0.620000000    -6.103000000
H    -2.100000000    -0.441000000    -7.043000000
H    -1.429000000    -0.026000000    -5.751000000
O     5.133000000     2.036000000    -1.173000000
H     5.624000000     2.391000000    -1.914000000
H     4.225000000     2.019000000    -1.473000000
O    -1.981000000    -1.518000000     3.185000000
H    -1.771000000    -1.932000000     4.022000000
H    -1.319000000    -0.834000000     3.083000000
O    -2.943000000     1.842000000     1.442000000
H    -2.557000000     1.101000000     0.973000000
H    -2.427000000     1.912000000     2.245000000
O    -2.422000000     5.554000000    -2.316000000
H    -3.311000000     5.864000000    -2.487000000
H    -2.459000000     5.199000000    -1.428000000
O    -4.168000000    -1.275000000    -4.483000000
H    -4.880000000    -0.710000000    -4.182000000
H    -3.705000000    -0.750000000    -5.135000000
O     0.275000000     3.610000000     3.361000000
H     0.842000000     4.157000000     2.817000000
H     0.341000000     3.993000000     4.236000000
O     1.881000000     5.087000000     1.401000000
H     2.521000000     5.536000000     1.954000000
H     2.004000000     5.470000000     0.533000000
O    -1.347000000     1.735000000    -4.599000000
H    -1.102000000     2.614000000    -4.309000000
H    -2.209000000     1.586000000    -4.209000000
O     4.629000000    -6.383000000     1.174000000
H     5.263000000    -5.714000000     1.435000000
H     3.865000000    -5.887000000     0.881000000
O    -3.496000000     4.478000000     0.260000000
H    -2.604000000     4.738000000     0.491000000
H    -3.565000000     3.571000000     0.559000000
O    -3.500000000     1.880000000    -3.250000000
H    -3.257000000     2.715000000    -3.649000000
H    -4.332000000     1.650000000    -3.664000000
O     5.415000000     2.535000000     1.551000000
H     5.379000000     2.503000000     0.595000000
H     6.343000000     2.658000000     1.752000000
O    -5.161000000    -4.338000000    -3.242000000
H    -4.858000000    -3.430000000    -3.236000000
H    -4.366000000    -4.857000000    -3.122000000
O    -4.499000000    -0.741000000    -1.025000000
H    -4.302000000     0.114000000    -1.409000000
H    -4.112000000    -0.706000000    -0.151000000
O     1.611000000     0.828000000     6.215000000
H     2.137000000     0.196000000     5.726000000
H     2.172000000     1.600000000     6.289000000
O    -3.633000000     4.239000000    -4.566000000
H    -3.758000000     4.844000000    -3.835000000
H    -3.216000000     4.768000000    -5.246000000
O     3.831000000    -3.265000000     2.494000000
H     2.917000000    -3.080000000     2.274000000
H     3.815000000    -3.479000000     3.426000000
O    -0.400000000    -7.267000000    -2.472000000
H    -0.923000000    -7.087000000    -3.254000000
H    -0.646000000    -6.578000000    -1.855000000
O     2.865000000     2.100000000    -2.477000000
H     2.301000000     1.472000000    -2.930000000
H     2.523000000     2.957000000    -2.731000000
O     2.556000000    -4.916000000     0.329000000
H     1.971000000    -4.864000000    -0.427000000
H     2.062000000    -4.510000000     1.042000000
O    -3.537000000    -6.729000000    -0.008000000
H    -3.586000000    -7.561000000    -0.478000000
H    -3.194000000    -6.110000000    -0.653000000
O     0.466000000    -4.267000000     4.149000000
H     0.592000000    -3.768000000     3.342000000
H    -0.269000000    -4.849000000     3.957000000
O     1.148000000     0.950000000    -4.475000000
H     0.197000000     1.061000000    -4.468000000
H     1.465000000     1.641000000    -5.056000000
O     1.903000000     4.520000000    -3.526000000
H     1.028000000     4.542000000    -3.914000000
H     1.848000000     5.118000000    -2.780000000
O    -0.026000000    -1.578000000    -2.896000000
H    -0.542000000    -1.200000000    -2.185000000
H     0.416000000    -0.829000000    -3.297000000
O     1.589000000     6.364000000    -1.051000000
H     1.987000000     7.157000000    -0.692000000
H     0.874000000     6.683000000    -1.601000000
O    -7.012000000    -1.997000000    -0.023000000
H    -7.341000000    -1.348000000     0.598000000
H    -6.082000000    -1.791000000    -0.115000000
O     1.904000000    -6.833000000     4.684000000
H     1.466000000    -6.022000000     4.941000000
H     1.334000000    -7.528000000     5.013000000
O     2.431000000    -2.863000000     5.767000000
H     2.934000000    -3.180000000     6.517000000
H     1.804000000    -3.564000000     5.586000000
O     3.920000000     4.191000000     3.481000000
H     3.216000000     3.567000000     3.655000000
H     4.434000000     3.784000000     2.783000000
O     4.879000000     0.818000000     3.468000000
H     3.973000000     0.594000000     3.256000000
H     5.184000000     1.321000000     2.712000000
O     0.436000000    -7.841000000     1.776000000
H    -0.313000000    -8.436000000     1.809000000
H     0.368000000    -7.325000000     2.580000000
O    -1.352000000    -4.980000000    -1.120000000
H    -1.928000000    -4.253000000    -1.356000000
H    -0.936000000    -4.701000000    -0.304000000
O    -4.442000000    -3.764000000     3.822000000
H    -3.876000000    -4.095000000     3.125000000
H    -3.854000000    -3.632000000     4.566000000
O     2.185000000    -1.001000000     3.879000000
H     2.038000000    -1.315000000     2.986000000
H     2.022000000    -1.765000000     4.431000000
O    -4.295000000    -1.713000000     1.484000000
H    -4.740000000    -2.071000000     2.251000000
H    -3.364000000    -1.765000000     1.701000000
O     6.211000000    -3.552000000     1.463000000
H     5.357000000    -3.201000000     1.715000000
H     6.598000000    -2.871000000     0.914000000
O    -1.228000000     1.360000000     3.426000000
H    -0.840000000     0.971000000     4.210000000
H    -0.651000000     2.093000000     3.213000000
O    -0.874000000     5.522000000     0.739000000
H    -0.009000000     5.196000000     0.989000000
H    -0.716000000     6.417000000     0.439000000
O    -1.949000000    -3.151000000    -4.144000000
H    -2.584000000    -2.444000000    -4.257000000
H    -1.206000000    -2.738000000    -3.703000000
O    -0.732000000     4.462000000    -4.151000000
H    -1.424000000     4.766000000    -3.564000000
H    -0.962000000     4.832000000    -5.004000000
O    -5.699000000     5.170000000    -1.426000000
H    -4.965000000     5.150000000    -0.812000000
H    -6.445000000     4.852000000    -0.918000000
O     4.472000000    -2.289000000    -1.447000000
H     4.508000000    -2.949000000    -0.755000000
H     3.687000000    -2.511000000    -1.948000000
O    -3.581000000    -3.372000000    -1.093000000
H    -3.660000000    -2.479000000    -1.428000000
H    -3.828000000    -3.305000000    -0.171000000
O    -2.480000000    -4.727000000     1.827000000
H    -2.532000000    -5.535000000     1.316000000
H    -1.729000000    -4.260000000     1.461000000
O     2.208000000    -3.501000000    -2.997000000
H     1.458000000    -2.931000000    -2.828000000
H     1.932000000    -4.048000000    -3.732000000
O    -0.374000000     7.382000000    -2.741000000
H    -1.001000000     6.663000000    -2.669000000
H    -0.804000000     8.119000000    -2.307000000
