161
-3053.92995
C    -0.907000000     1.074000000    -0.407000000
H    -1.529000000     1.872000000    -0.803000000
C     0.297000000     0.919000000    -0.932000000
H     0.715000000     1.644000000    -1.626000000
C     1.134000000    -0.053000000    -0.382000000
C     2.556000000    -0.303000000    -0.840000000
H     2.934000000     0.522000000    -1.448000000
H     3.065000000    -0.443000000     0.116000000
H     2.602000000    -1.219000000    -1.432000000
C     0.691000000    -0.973000000     0.508000000
H     1.337000000    -1.745000000     0.918000000
C    -0.665000000    -0.855000000     0.944000000
H    -1.017000000    -1.579000000     1.674000000
C    -1.450000000     0.243000000     0.526000000
C    -2.868000000     0.291000000     0.993000000
O    -3.432000000    -0.782000000     1.183000000
O    -3.460000000     1.384000000     1.011000000
O     2.016000000     5.934000000     0.476000000
H     1.350000000     5.388000000     0.059000000
H     2.781000000     5.856000000    -0.094000000
O    -2.563000000    -2.536000000     5.335000000
H    -2.935000000    -3.055000000     6.047000000
H    -3.143000000    -2.698000000     4.591000000
O     3.885000000     3.006000000    -3.870000000
H     3.083000000     3.529000000    -3.889000000
H     3.721000000     2.293000000    -4.486000000
O    -3.330000000     3.036000000     3.218000000
H    -3.473000000     2.452000000     2.472000000
H    -4.074000000     3.637000000     3.197000000
O     1.412000000     4.044000000    -2.967000000
H     1.301000000     4.115000000    -2.019000000
H     1.482000000     4.949000000    -3.269000000
O    -5.813000000     2.078000000     5.565000000
H    -6.250000000     1.673000000     6.314000000
H    -5.398000000     1.348000000     5.106000000
O    -1.561000000     0.049000000    -4.769000000
H    -1.122000000    -0.597000000    -4.215000000
H    -0.979000000     0.808000000    -4.760000000
O    -0.753000000     3.294000000     2.504000000
H    -0.531000000     4.154000000     2.860000000
H    -1.698000000     3.216000000     2.636000000
O     4.663000000     1.118000000     3.679000000
H     4.255000000     1.121000000     4.544000000
H     4.461000000     1.980000000     3.315000000
O     0.176000000    -4.204000000     0.838000000
H     0.910000000    -4.001000000     1.418000000
H    -0.500000000    -4.550000000     1.421000000
O    -6.620000000     5.310000000    -0.160000000
H    -6.401000000     5.902000000     0.559000000
H    -5.998000000     4.588000000    -0.073000000
O     4.004000000     3.167000000     1.850000000
H     3.108000000     3.019000000     2.151000000
H     4.093000000     2.610000000     1.077000000
O    -1.893000000    -3.807000000    -0.959000000
H    -1.157000000    -3.639000000    -0.371000000
H    -2.163000000    -4.703000000    -0.756000000
O    -0.317000000     4.270000000    -0.441000000
H    -0.381000000     3.624000000     0.262000000
H    -1.214000000     4.363000000    -0.763000000
O    -2.839000000     4.719000000    -1.398000000
H    -2.820000000     4.249000000    -2.232000000
H    -3.590000000     4.350000000    -0.933000000
O    -8.170000000     0.026000000     3.631000000
H    -7.293000000     0.157000000     3.271000000
H    -8.633000000     0.841000000     3.438000000
O     5.404000000     1.526000000    -1.996000000
H     4.947000000     2.163000000    -2.544000000
H     5.270000000     0.688000000    -2.440000000
O    -2.684000000     2.829000000    -3.476000000
H    -2.880000000     1.904000000    -3.623000000
H    -1.774000000     2.928000000    -3.757000000
O     1.534000000     0.922000000     5.464000000
H     1.494000000     0.050000000     5.072000000
H     2.248000000     0.866000000     6.100000000
O    -1.763000000    -4.742000000     2.599000000
H    -2.155000000    -5.403000000     2.029000000
H    -2.403000000    -4.618000000     3.299000000
O    -7.465000000     2.703000000     2.580000000
H    -7.797000000     3.538000000     2.248000000
H    -7.215000000     2.888000000     3.485000000
O    -1.611000000     0.015000000     4.904000000
H    -0.708000000    -0.168000000     4.642000000
H    -2.071000000    -0.814000000     4.773000000
O     5.578000000    -3.487000000    -1.892000000
H     4.714000000    -3.894000000    -1.835000000
H     5.413000000    -2.628000000    -2.281000000
O    -5.515000000    -4.704000000     1.467000000
H    -6.241000000    -4.552000000     0.863000000
H    -5.154000000    -5.549000000     1.200000000
O     1.646000000    -1.463000000    -4.021000000
H     1.474000000    -1.111000000    -4.895000000
H     0.799000000    -1.426000000    -3.577000000
O     4.979000000    -1.316000000     2.173000000
H     4.239000000    -1.387000000     1.570000000
H     4.803000000    -0.522000000     2.676000000
O    -4.126000000    -2.798000000     3.074000000
H    -3.758000000    -2.097000000     2.536000000
H    -4.760000000    -3.231000000     2.502000000
O     2.648000000    -3.613000000    -2.451000000
H     1.810000000    -3.399000000    -2.861000000
H     2.654000000    -3.103000000    -1.640000000
O     1.707000000     2.017000000     2.817000000
H     1.584000000     1.761000000     3.732000000
H     0.820000000     2.177000000     2.493000000
O     2.198000000    -5.610000000    -0.120000000
H     1.946000000    -6.488000000     0.166000000
H     1.368000000    -5.170000000    -0.303000000
O    -6.377000000     1.432000000    -1.603000000
H    -6.082000000     0.524000000    -1.538000000
H    -7.262000000     1.423000000    -1.238000000
O     0.273000000    -4.186000000     5.435000000
H    -0.514000000    -3.671000000     5.255000000
H     0.257000000    -4.324000000     6.382000000
O    -2.685000000     2.420000000     5.996000000
H    -3.062000000     2.772000000     5.190000000
H    -2.181000000     1.658000000     5.712000000
O    -4.824000000     3.278000000    -0.258000000
H    -4.390000000     2.597000000     0.257000000
H    -5.461000000     2.804000000    -0.793000000
O    -6.543000000    -1.337000000    -1.562000000
H    -7.223000000    -1.448000000    -0.897000000
H    -5.763000000    -1.733000000    -1.174000000
O     4.771000000    -1.110000000    -3.040000000
H     5.056000000    -0.961000000    -3.942000000
H     3.830000000    -1.270000000    -3.109000000
O     3.615000000    -3.409000000     0.677000000
H     4.263000000    -3.626000000     1.348000000
H     3.212000000    -4.248000000     0.454000000
O    -0.888000000    -1.511000000    -2.546000000
H    -1.116000000    -2.390000000    -2.243000000
H    -0.966000000    -0.961000000    -1.767000000
O    -0.188000000     2.443000000    -4.435000000
H     0.447000000     2.860000000    -3.853000000
H    -0.145000000     2.956000000    -5.243000000
O     6.922000000    -1.962000000     0.319000000
H     6.269000000    -1.637000000     0.938000000
H     6.411000000    -2.410000000    -0.355000000
O    -6.196000000    -1.705000000     4.912000000
H    -5.731000000    -1.996000000     4.128000000
H    -6.857000000    -1.095000000     4.586000000
O     2.870000000    -4.702000000     3.031000000
H     2.734000000    -4.440000000     3.941000000
H     3.777000000    -5.006000000     3.002000000
O    -4.248000000    -2.353000000    -0.823000000
H    -3.945000000    -1.705000000    -0.186000000
H    -3.459000000    -2.837000000    -1.067000000
O    -5.855000000     0.391000000     2.193000000
H    -6.052000000     1.267000000     1.860000000
H    -5.095000000     0.107000000     1.685000000
O     3.047000000    -5.617000000    -4.185000000
H     2.874000000    -5.006000000    -3.469000000
H     3.969000000    -5.851000000    -4.082000000
O     3.964000000     4.854000000    -1.380000000
H     4.863000000     5.043000000    -1.112000000
H     4.056000000     4.304000000    -2.158000000
O     1.757000000    -1.439000000     4.467000000
H     1.159000000    -2.141000000     4.212000000
H     2.387000000    -1.861000000     5.051000000
O     6.968000000     2.420000000     0.111000000
H     6.160000000     2.271000000     0.604000000
H     6.754000000     2.158000000    -0.784000000
