161
-3083.27070
C    -1.425000000    -0.356000000    -0.145000000
H    -2.419000000    -0.724000000    -0.389000000
C    -0.691000000     0.216000000    -1.137000000
H    -1.192000000     0.432000000    -2.078000000
C     0.631000000     0.569000000    -0.913000000
C     1.496000000     1.327000000    -1.835000000
H     2.528000000     1.217000000    -1.494000000
H     1.518000000     0.897000000    -2.839000000
H     1.165000000     2.367000000    -1.829000000
C     1.166000000     0.320000000     0.347000000
H     2.188000000     0.633000000     0.549000000
C     0.462000000    -0.290000000     1.314000000
H     0.904000000    -0.521000000     2.280000000
C    -0.862000000    -0.735000000     1.070000000
C    -1.628000000    -1.566000000     2.105000000
O    -1.021000000    -2.059000000     3.062000000
O    -2.826000000    -1.727000000     1.939000000
O     3.234000000     0.798000000    -5.274000000
H     3.191000000     1.675000000    -5.655000000
H     4.169000000     0.598000000    -5.238000000
O     2.363000000    -4.165000000    -4.453000000
H     1.687000000    -3.657000000    -4.005000000
H     1.882000000    -4.860000000    -4.902000000
O    -4.131000000     0.382000000     2.957000000
H    -3.716000000    -0.427000000     2.660000000
H    -3.405000000     0.925000000     3.265000000
O     2.278000000     5.978000000    -3.162000000
H     2.599000000     5.429000000    -2.446000000
H     1.489000000     5.532000000    -3.470000000
O    -1.913000000     1.679000000     3.594000000
H    -1.544000000     1.247000000     4.364000000
H    -1.179000000     2.164000000     3.217000000
O    -2.468000000    -3.369000000    -5.783000000
H    -2.136000000    -3.845000000    -6.545000000
H    -1.683000000    -3.031000000    -5.352000000
O     0.534000000     4.059000000     0.234000000
H     0.346000000     3.286000000    -0.298000000
H     0.069000000     4.771000000    -0.206000000
O    -2.765000000    -0.154000000    -5.861000000
H    -2.571000000    -0.998000000    -6.270000000
H    -3.168000000    -0.380000000    -5.023000000
O    -2.866000000     4.210000000    -3.065000000
H    -2.590000000     3.595000000    -3.745000000
H    -3.151000000     3.654000000    -2.340000000
O    -2.306000000     2.413000000    -5.367000000
H    -2.912000000     2.883000000    -5.941000000
H    -2.472000000     1.488000000    -5.550000000
O     5.992000000     3.355000000    -0.010000000
H     6.881000000     3.620000000    -0.244000000
H     5.889000000     2.489000000    -0.405000000
O    -0.988000000     5.594000000    -1.126000000
H    -1.604000000     5.388000000    -1.829000000
H    -0.909000000     6.548000000    -1.149000000
O     0.227000000     4.548000000    -4.306000000
H    -0.274000000     3.802000000    -4.634000000
H    -0.376000000     5.289000000    -4.372000000
O     0.388000000     3.299000000     2.971000000
H     1.125000000     2.821000000     3.351000000
H     0.745000000     3.699000000     2.178000000
O     3.083000000     3.643000000    -6.065000000
H     2.298000000     3.988000000    -5.641000000
H     3.785000000     3.798000000    -5.433000000
O     5.589000000     0.359000000    -1.395000000
H     5.004000000    -0.325000000    -1.722000000
H     5.310000000     1.152000000    -1.854000000
O    -4.512000000    -0.674000000    -3.670000000
H    -4.919000000    -1.431000000    -4.091000000
H    -5.248000000    -0.163000000    -3.335000000
O     3.473000000    -2.041000000     2.964000000
H     3.718000000    -2.191000000     3.877000000
H     2.628000000    -2.480000000     2.868000000
O    -6.257000000     2.099000000     3.705000000
H    -5.572000000     2.591000000     4.157000000
H    -5.790000000     1.393000000     3.258000000
O    -7.139000000    -0.598000000     1.510000000
H    -6.319000000    -1.076000000     1.383000000
H    -7.720000000    -0.933000000     0.828000000
O     2.079000000     1.003000000     6.812000000
H     1.217000000     0.732000000     6.495000000
H     2.353000000     0.295000000     7.394000000
O    -0.451000000    -5.780000000     2.494000000
H    -1.131000000    -6.444000000     2.608000000
H    -0.930000000    -4.952000000     2.456000000
O     5.509000000    -0.008000000     2.676000000
H     4.715000000    -0.542000000     2.716000000
H     5.610000000     0.338000000     3.563000000
O     4.882000000    -1.919000000     0.318000000
H     5.322000000    -1.233000000     0.820000000
H     4.311000000    -2.352000000     0.953000000
O    -1.717000000    -3.475000000     5.257000000
H    -1.554000000    -3.023000000     4.429000000
H    -2.089000000    -2.803000000     5.828000000
O     2.098000000    -2.372000000     6.412000000
H     1.224000000    -2.006000000     6.551000000
H     1.950000000    -3.147000000     5.870000000
O    -0.035000000    -2.769000000    -4.897000000
H     0.299000000    -2.075000000    -5.466000000
H     0.309000000    -3.577000000    -5.278000000
O     1.499000000    -0.877000000    -6.396000000
H     2.110000000    -0.175000000    -6.172000000
H     0.937000000    -0.500000000    -7.072000000
O    -0.694000000    -2.563000000    -1.926000000
H    -0.524000000    -2.593000000    -2.867000000
H    -0.863000000    -1.639000000    -1.742000000
O    -4.938000000    -2.352000000     0.370000000
H    -4.188000000    -2.204000000     0.945000000
H    -4.617000000    -2.967000000    -0.289000000
O     3.347000000     4.932000000    -0.370000000
H     4.029000000     4.453000000     0.101000000
H     2.526000000     4.566000000    -0.039000000
O    -6.666000000     0.863000000    -2.309000000
H    -7.434000000     0.544000000    -1.836000000
H    -5.966000000     0.864000000    -1.655000000
O     1.135000000    -3.459000000     3.097000000
H     0.362000000    -2.904000000     2.991000000
H     0.816000000    -4.347000000     2.936000000
O     0.134000000    -5.448000000     5.529000000
H    -0.583000000    -4.819000000     5.459000000
H    -0.267000000    -6.226000000     5.916000000
O    -4.220000000     2.911000000     1.094000000
H    -4.096000000     3.859000000     1.126000000
H    -3.869000000     2.595000000     1.926000000
O     2.945000000     2.422000000     4.360000000
H     2.405000000     2.263000000     5.134000000
H     3.645000000     1.772000000     4.418000000
O    -2.534000000    -1.122000000     6.528000000
H    -3.326000000    -0.811000000     6.089000000
H    -2.609000000    -0.790000000     7.422000000
O    -5.050000000    -0.717000000     5.443000000
H    -5.182000000    -0.162000000     4.674000000
H    -5.028000000    -1.608000000     5.094000000
O    -4.298000000    -3.024000000     3.801000000
H    -3.801000000    -3.447000000     4.501000000
H    -3.635000000    -2.760000000     3.163000000
O    -0.334000000    -0.241000000     5.094000000
H    -0.115000000    -0.810000000     4.356000000
H    -1.133000000    -0.619000000     5.460000000
O    -3.300000000     2.230000000    -1.398000000
H    -3.622000000     2.511000000    -0.542000000
H    -3.617000000     1.332000000    -1.491000000
O     3.595000000    -1.118000000    -3.363000000
H     3.096000000    -0.452000000    -3.836000000
H     3.761000000    -1.801000000    -4.013000000
O     2.161000000    -2.546000000    -1.002000000
H     1.332000000    -2.192000000    -0.682000000
H     2.747000000    -1.790000000    -1.036000000
O     4.710000000     2.621000000    -2.436000000
H     5.102000000     3.116000000    -3.155000000
H     4.398000000     3.290000000    -1.827000000
O    -4.447000000    -3.474000000    -3.920000000
H    -3.878000000    -3.722000000    -4.649000000
H    -3.936000000    -3.679000000    -3.137000000
O    -5.677000000    -4.661000000     1.844000000
H    -5.307000000    -4.031000000     1.226000000
H    -5.217000000    -4.489000000     2.666000000
O    -3.342000000    -4.313000000    -1.235000000
H    -2.624000000    -3.720000000    -1.459000000
H    -2.946000000    -5.184000000    -1.251000000
O    -5.000000000     0.220000000    -0.460000000
H    -5.164000000    -0.643000000    -0.079000000
H    -4.660000000     0.741000000     0.268000000
