161
-3038.54781
C    -0.861000000     1.218000000     0.329000000
H    -1.648000000     1.941000000     0.530000000
C    -0.602000000     0.649000000    -0.937000000
H    -0.988000000     1.212000000    -1.783000000
C     0.260000000    -0.414000000    -1.121000000
C     0.561000000    -1.011000000    -2.490000000
H     0.699000000    -0.272000000    -3.282000000
H     1.384000000    -1.725000000    -2.411000000
H    -0.334000000    -1.568000000    -2.774000000
C     0.776000000    -1.059000000    -0.010000000
H     1.412000000    -1.932000000    -0.130000000
C     0.521000000    -0.541000000     1.260000000
H     0.857000000    -1.184000000     2.070000000
C    -0.258000000     0.642000000     1.411000000
C    -0.521000000     1.234000000     2.775000000
O     0.344000000     1.019000000     3.619000000
O    -1.602000000     1.798000000     2.948000000
O     0.510000000    -0.194000000    -6.331000000
H    -0.370000000    -0.402000000    -6.017000000
H     0.935000000     0.234000000    -5.587000000
O    -0.808000000     4.308000000     2.205000000
H    -1.226000000     3.448000000     2.247000000
H    -1.388000000     4.829000000     1.649000000
O    -0.927000000     0.475000000     5.963000000
H    -0.702000000     0.744000000     5.073000000
H    -1.840000000     0.192000000     5.904000000
O     2.800000000     1.814000000    -0.321000000
H     3.513000000     1.287000000    -0.682000000
H     2.003000000     1.374000000    -0.617000000
O     2.397000000     2.601000000     4.830000000
H     2.305000000     2.473000000     5.775000000
H     1.937000000     1.857000000     4.442000000
O    -3.720000000     5.430000000     4.441000000
H    -3.154000000     4.665000000     4.330000000
H    -4.009000000     5.644000000     3.554000000
O     3.759000000     3.572000000     1.892000000
H     3.718000000     3.397000000     2.832000000
H     3.134000000     2.957000000     1.507000000
O     5.456000000    -1.974000000     4.302000000
H     4.630000000    -1.691000000     3.910000000
H     5.916000000    -1.160000000     4.505000000
O    -1.814000000    -4.353000000    -4.096000000
H    -1.541000000    -3.800000000    -4.828000000
H    -2.220000000    -5.115000000    -4.509000000
O     3.944000000    -4.188000000     0.645000000
H     3.939000000    -3.365000000     1.133000000
H     3.933000000    -4.867000000     1.320000000
O    -2.249000000    -2.645000000    -0.891000000
H    -2.589000000    -2.000000000    -1.511000000
H    -2.185000000    -2.170000000    -0.062000000
O     0.208000000    -6.528000000    -4.371000000
H    -0.466000000    -6.598000000    -5.047000000
H     0.403000000    -5.592000000    -4.324000000
O    -4.555000000    -0.482000000     4.196000000
H    -4.180000000    -0.379000000     5.070000000
H    -5.495000000    -0.581000000     4.348000000
O    -5.939000000     1.892000000     5.485000000
H    -5.030000000     2.131000000     5.308000000
H    -6.402000000     2.092000000     4.671000000
O    -2.367000000     6.341000000     0.609000000
H    -3.294000000     6.310000000     0.845000000
H    -2.337000000     6.013000000    -0.289000000
O     2.648000000    -0.262000000     3.976000000
H     1.863000000     0.275000000     3.865000000
H     3.364000000     0.296000000     3.673000000
O    -2.252000000     3.090000000     5.252000000
H    -1.939000000     2.515000000     4.553000000
H    -1.620000000     2.970000000     5.961000000
O    -3.315000000     5.264000000    -1.645000000
H    -4.104000000     4.725000000    -1.596000000
H    -2.923000000     5.038000000    -2.489000000
O     2.512000000    -4.459000000    -3.083000000
H     1.782000000    -4.261000000    -2.497000000
H     2.739000000    -5.367000000    -2.884000000
O     2.434000000    -3.565000000     3.023000000
H     2.541000000    -3.546000000     3.974000000
H     2.587000000    -4.479000000     2.783000000
O    -5.409000000     2.524000000    -4.110000000
H    -4.744000000     2.975000000    -4.629000000
H    -4.991000000     2.371000000    -3.263000000
O     3.737000000     0.163000000    -2.279000000
H     3.439000000    -0.440000000    -2.960000000
H     4.181000000     0.863000000    -2.758000000
O     3.199000000    -6.182000000    -1.239000000
H     3.132000000    -5.584000000    -0.494000000
H     2.558000000    -6.868000000    -1.053000000
O    -0.256000000    -4.257000000    -1.843000000
H    -0.804000000    -4.470000000    -2.599000000
H    -0.665000000    -3.481000000    -1.461000000
O    -3.748000000    -2.985000000     3.528000000
H    -3.818000000    -2.055000000     3.742000000
H    -2.936000000    -3.268000000     3.948000000
O     0.178000000     1.515000000     8.531000000
H    -0.275000000     1.121000000     7.786000000
H     0.896000000     2.012000000     8.140000000
O     2.188000000    -2.479000000     5.510000000
H     1.261000000    -2.574000000     5.733000000
H     2.203000000    -1.811000000     4.825000000
O     4.417000000     1.095000000    -5.492000000
H     4.572000000     1.778000000    -4.840000000
H     5.215000000     1.083000000    -6.021000000
O     0.653000000     5.036000000     4.463000000
H     0.240000000     4.497000000     3.787000000
H     0.427000000     4.602000000     5.286000000
O     3.540000000    -1.378000000    -6.737000000
H     4.253000000    -1.951000000    -6.459000000
H     3.759000000    -0.524000000    -6.364000000
O    -4.369000000     1.861000000     2.953000000
H    -4.383000000     1.020000000     3.410000000
H    -3.439000000     2.052000000     2.832000000
O     2.259000000     3.756000000    -6.426000000
H     1.516000000     4.358000000    -6.464000000
H     2.177000000     3.327000000    -5.574000000
O    -5.967000000     3.934000000     2.946000000
H    -5.411000000     3.158000000     3.020000000
H    -6.545000000     3.745000000     2.207000000
O     0.407000000    -6.342000000    -0.120000000
H     0.335000000    -5.521000000    -0.608000000
H    -0.070000000    -6.979000000    -0.652000000
O    -2.570000000    -4.891000000     0.634000000
H    -1.874000000    -4.763000000     1.278000000
H    -2.314000000    -4.343000000    -0.108000000
O     0.452000000    -3.884000000    -6.132000000
H     1.235000000    -3.497000000    -5.739000000
H     0.411000000    -3.503000000    -7.009000000
O    -1.814000000    -0.920000000    -4.982000000
H    -2.462000000    -1.180000000    -5.638000000
H    -2.335000000    -0.602000000    -4.245000000
O    -5.147000000     3.321000000    -1.487000000
H    -6.012000000     3.718000000    -1.380000000
H    -5.187000000     2.517000000    -0.969000000
O     3.866000000    -1.014000000     0.339000000
H     2.984000000    -0.659000000     0.450000000
H     4.028000000    -0.964000000    -0.603000000
O    -0.756000000    -1.877000000     4.192000000
H    -0.428000000    -2.360000000     4.951000000
H    -0.577000000    -0.960000000     4.397000000
O     2.052000000     2.939000000    -3.890000000
H     1.546000000     3.164000000    -3.109000000
H     2.946000000     2.821000000    -3.570000000
O    -3.235000000    -0.704000000     1.487000000
H    -3.744000000    -1.259000000     2.078000000
H    -2.549000000    -0.331000000     2.040000000
O    -5.026000000     0.744000000    -0.287000000
H    -4.341000000     0.405000000     0.290000000
H    -5.832000000     0.339000000     0.034000000
O    -0.128000000    -3.835000000     2.009000000
H    -0.528000000    -3.283000000     2.681000000
H     0.791000000    -3.567000000     1.994000000
O    -3.903000000    -0.769000000    -2.352000000
H    -4.725000000    -1.057000000    -2.749000000
H    -4.171000000    -0.166000000    -1.659000000
O    -1.766000000     5.450000000    -3.981000000
H    -1.754000000     6.400000000    -4.097000000
H    -0.844000000     5.207000000    -3.895000000
O     4.029000000    -2.652000000    -4.157000000
H     4.070000000    -3.101000000    -5.002000000
H     3.576000000    -3.268000000    -3.581000000
O     0.197000000     4.321000000    -1.550000000
H     0.902000000     4.214000000    -0.911000000
H    -0.400000000     4.949000000    -1.144000000
