161
-3026.35061
C     0.702000000    -1.165000000     0.502000000
H     1.282000000    -1.902000000     1.052000000
C    -0.296000000    -0.458000000     1.205000000
H    -0.486000000    -0.745000000     2.236000000
C    -0.992000000     0.524000000     0.536000000
C    -1.982000000     1.315000000     1.431000000
H    -3.028000000     1.154000000     1.162000000
H    -1.955000000     0.965000000     2.465000000
H    -1.722000000     2.375000000     1.386000000
C    -0.578000000     0.933000000    -0.770000000
H    -1.016000000     1.800000000    -1.256000000
C     0.457000000     0.268000000    -1.459000000
H     0.781000000     0.670000000    -2.415000000
C     1.150000000    -0.790000000    -0.795000000
C     2.268000000    -1.465000000    -1.574000000
O     2.457000000    -1.256000000    -2.703000000
O     2.962000000    -2.215000000    -1.007000000
O    -4.139000000    -2.916000000     0.150000000
H    -4.588000000    -2.109000000     0.403000000
H    -3.699000000    -2.698000000    -0.671000000
O    -0.157000000     3.770000000    -4.686000000
H    -0.092000000     3.689000000    -3.734000000
H     0.682000000     3.444000000    -5.012000000
O    -0.974000000    -2.770000000    -3.984000000
H    -0.093000000    -2.878000000    -3.626000000
H    -0.968000000    -1.897000000    -4.377000000
O    -2.815000000     4.346000000    -1.182000000
H    -2.040000000     4.750000000    -1.574000000
H    -2.672000000     4.422000000    -0.238000000
O    -2.096000000    -4.347000000     4.555000000
H    -2.132000000    -4.685000000     3.660000000
H    -1.308000000    -3.805000000     4.576000000
O     2.654000000     3.505000000    -0.457000000
H     1.875000000     3.621000000     0.089000000
H     3.009000000     4.389000000    -0.558000000
O     3.539000000    -2.435000000     3.554000000
H     4.232000000    -2.643000000     2.928000000
H     2.745000000    -2.798000000     3.162000000
O    -1.358000000     4.929000000     1.112000000
H    -1.591000000     5.376000000     1.925000000
H    -0.667000000     4.317000000     1.364000000
O     2.593000000     5.205000000    -3.607000000
H     3.457000000     5.203000000    -3.194000000
H     2.616000000     4.465000000    -4.214000000
O    -4.350000000     4.149000000     1.630000000
H    -3.445000000     4.034000000     1.922000000
H    -4.725000000     4.771000000     2.254000000
O    -2.157000000     2.151000000    -4.533000000
H    -2.853000000     2.458000000    -5.114000000
H    -1.383000000     2.645000000    -4.803000000
O    -0.026000000    -4.763000000    -0.676000000
H     0.614000000    -4.212000000    -1.126000000
H     0.217000000    -5.657000000    -0.914000000
O    -1.173000000     1.404000000     5.579000000
H    -1.651000000     1.939000000     4.946000000
H    -0.254000000     1.506000000     5.333000000
O     1.582000000    -3.896000000    -3.663000000
H     1.955000000    -3.198000000    -4.201000000
H     2.339000000    -4.401000000    -3.367000000
O     1.667000000    -0.577000000     3.989000000
H     1.789000000     0.277000000     3.573000000
H     2.507000000    -1.021000000     3.873000000
O     3.629000000     1.335000000    -3.016000000
H     3.857000000     1.713000000    -2.167000000
H     3.180000000     0.517000000    -2.802000000
O     2.656000000     2.898000000    -5.256000000
H     2.929000000     2.308000000    -5.958000000
H     2.846000000     2.417000000    -4.450000000
O     3.977000000    -6.214000000     2.428000000
H     3.993000000    -5.710000000     1.615000000
H     3.453000000    -6.988000000     2.220000000
O    -2.978000000     5.729000000    -4.047000000
H    -2.403000000     6.399000000    -3.678000000
H    -3.189000000     5.160000000    -3.306000000
O     0.973000000     2.970000000     4.687000000
H     1.756000000     2.842000000     5.221000000
H     0.703000000     3.870000000     4.868000000
O     3.229000000    -6.240000000    -2.519000000
H     2.391000000    -6.540000000    -2.165000000
H     3.887000000    -6.727000000    -2.022000000
O     3.017000000     1.370000000     1.793000000
H     2.445000000     1.614000000     1.065000000
H     3.440000000     0.561000000     1.505000000
O    -8.046000000     2.222000000     2.510000000
H    -7.298000000     2.216000000     1.912000000
H    -7.926000000     1.442000000     3.052000000
O     0.275000000    -1.518000000     7.058000000
H    -0.665000000    -1.525000000     7.240000000
H     0.336000000    -1.640000000     6.111000000
O    -5.995000000     0.144000000     5.680000000
H    -6.734000000    -0.145000000     5.145000000
H    -5.363000000     0.489000000     5.050000000
O     0.809000000     3.298000000     1.724000000
H     0.389000000     2.439000000     1.767000000
H     1.043000000     3.497000000     2.630000000
O    -3.836000000     2.051000000    -2.498000000
H    -3.329000000     1.964000000    -3.306000000
H    -3.392000000     2.744000000    -2.010000000
O    -1.968000000     6.442000000     3.331000000
H    -2.264000000     6.955000000     2.579000000
H    -1.519000000     7.075000000     3.891000000
O     1.283000000     0.378000000    -7.070000000
H     1.174000000    -0.334000000    -7.700000000
H     1.466000000     1.148000000    -7.609000000
O    -0.329000000     5.261000000    -1.883000000
H    -0.273000000     5.292000000    -0.928000000
H     0.563000000     5.438000000    -2.181000000
O     0.192000000    -2.948000000     4.317000000
H     0.444000000    -2.025000000     4.332000000
H     0.607000000    -3.297000000     3.528000000
O     4.379000000    -0.653000000     0.689000000
H     5.119000000    -1.094000000     1.106000000
H     3.921000000    -1.349000000     0.217000000
O     2.495000000    -1.820000000    -5.242000000
H     2.392000000    -1.649000000    -4.306000000
H     2.082000000    -1.070000000    -5.670000000
O    -6.041000000     2.482000000     0.550000000
H    -6.496000000     3.110000000    -0.011000000
H    -5.382000000     3.004000000     1.009000000
O     5.469000000    -3.267000000     1.031000000
H     6.243000000    -3.822000000     1.121000000
H     4.809000000    -3.838000000     0.637000000
O     6.746000000    -3.133000000    -4.807000000
H     7.590000000    -3.021000000    -4.371000000
H     6.149000000    -3.403000000    -4.109000000
O     1.725000000    -4.303000000     2.324000000
H     2.385000000    -4.971000000     2.137000000
H     0.905000000    -4.681000000     2.006000000
O     5.206000000    -3.341000000    -2.619000000
H     4.369000000    -2.880000000    -2.572000000
H     5.378000000    -3.619000000    -1.720000000
O     4.618000000     1.812000000    -0.514000000
H     3.920000000     2.376000000    -0.181000000
H     4.450000000     0.960000000    -0.111000000
O    -3.202000000    -2.957000000    -2.424000000
H    -3.334000000    -2.044000000    -2.681000000
H    -2.327000000    -3.172000000    -2.748000000
O    -2.746000000     3.253000000     4.313000000
H    -3.460000000     3.199000000     4.949000000
H    -2.622000000     4.192000000     4.172000000
O    -1.709000000    -4.426000000     1.505000000
H    -2.431000000    -3.801000000     1.431000000
H    -1.262000000    -4.376000000     0.660000000
O    -5.363000000    -0.252000000    -0.164000000
H    -5.128000000    -0.352000000    -1.086000000
H    -5.365000000     0.695000000    -0.019000000
O    -4.452000000    -0.463000000    -2.678000000
H    -4.866000000    -0.439000000    -3.540000000
H    -4.101000000     0.419000000    -2.556000000
O     3.514000000    -4.037000000    -6.954000000
H     3.076000000    -3.224000000    -6.706000000
H     3.647000000    -4.500000000    -6.127000000
O    -0.617000000    -0.306000000    -5.192000000
H     0.049000000     0.052000000    -5.779000000
H    -1.308000000     0.357000000    -5.181000000
O     3.538000000    -4.794000000     0.188000000
H     3.307000000    -3.962000000    -0.225000000
H     3.661000000    -5.398000000    -0.544000000
O     5.973000000     1.328000000    -4.498000000
H     6.348000000     0.752000000    -5.163000000
H     5.154000000     0.902000000    -4.245000000
