161
-3040.86506
C    -0.759000000     1.176000000     0.308000000
H    -1.250000000     2.141000000     0.395000000
C    -0.586000000     0.626000000    -0.971000000
H    -1.028000000     1.156000000    -1.810000000
C     0.215000000    -0.476000000    -1.113000000
C     0.337000000    -0.999000000    -2.546000000
H    -0.629000000    -1.217000000    -3.007000000
H     0.842000000    -0.184000000    -3.068000000
H     0.935000000    -1.905000000    -2.432000000
C     0.719000000    -1.124000000    -0.004000000
H     1.318000000    -2.011000000    -0.196000000
C     0.482000000    -0.613000000     1.304000000
H     0.796000000    -1.285000000     2.098000000
C    -0.211000000     0.563000000     1.443000000
C    -0.390000000     1.196000000     2.839000000
O     0.082000000     0.665000000     3.823000000
O    -0.871000000     2.284000000     2.942000000
O    -2.803000000    -1.319000000     5.262000000
H    -1.889000000    -1.603000000     5.256000000
H    -3.233000000    -1.910000000     5.880000000
O    -1.749000000    -1.653000000    -5.389000000
H    -1.773000000    -0.754000000    -5.715000000
H    -2.432000000    -1.684000000    -4.719000000
O     0.738000000     5.634000000    -0.811000000
H    -0.217000000     5.611000000    -0.744000000
H     0.963000000     4.843000000    -1.300000000
O     0.745000000     2.395000000     5.708000000
H     0.575000000     2.071000000     4.824000000
H    -0.100000000     2.730000000     6.008000000
O    -3.501000000    -0.167000000    -0.035000000
H    -3.744000000    -1.027000000     0.309000000
H    -2.613000000    -0.021000000     0.292000000
O    -4.837000000     4.611000000     4.190000000
H    -4.381000000     5.214000000     4.778000000
H    -4.209000000     4.442000000     3.488000000
O     2.690000000     1.455000000     8.230000000
H     2.762000000     2.409000000     8.182000000
H     2.982000000     1.150000000     7.371000000
O     3.795000000    -4.543000000    -6.204000000
H     3.812000000    -5.152000000    -5.466000000
H     3.342000000    -3.770000000    -5.867000000
O     3.463000000     3.173000000     2.417000000
H     2.621000000     3.594000000     2.593000000
H     3.245000000     2.251000000     2.278000000
O     2.298000000    -2.912000000     4.845000000
H     2.834000000    -3.426000000     5.450000000
H     2.634000000    -3.137000000     3.977000000
O     2.987000000    -2.063000000    -4.932000000
H     3.283000000    -2.327000000    -4.061000000
H     3.792000000    -1.863000000    -5.409000000
O    -2.051000000     5.144000000    -0.959000000
H    -2.745000000     5.796000000    -1.056000000
H    -2.515000000     4.323000000    -0.793000000
O     0.897000000    -4.513000000     1.258000000
H     1.426000000    -3.898000000     1.767000000
H     0.102000000    -4.632000000     1.778000000
O     3.095000000    -6.325000000    -4.171000000
H     2.825000000    -7.028000000    -4.762000000
H     2.281000000    -6.024000000    -3.769000000
O    -1.631000000    -4.915000000     2.444000000
H    -2.193000000    -4.691000000     3.186000000
H    -2.097000000    -4.578000000     1.679000000
O     4.263000000    -5.037000000    -0.488000000
H     4.960000000    -4.891000000     0.151000000
H     4.130000000    -5.985000000    -0.485000000
O     3.402000000     0.429000000    -6.427000000
H     4.132000000     0.666000000    -5.855000000
H     3.389000000    -0.528000000    -6.415000000
O    -4.810000000    -3.724000000    -2.360000000
H    -5.314000000    -4.497000000    -2.613000000
H    -4.063000000    -3.718000000    -2.958000000
O    -0.981000000     6.059000000     3.186000000
H    -1.161000000     6.664000000     2.466000000
H    -1.582000000     5.328000000     3.041000000
O    -3.623000000     3.316000000    -4.115000000
H    -2.716000000     3.051000000    -4.266000000
H    -4.138000000     2.535000000    -4.318000000
O     0.478000000    -5.817000000    -3.563000000
H    -0.166000000    -5.917000000    -2.862000000
H     0.200000000    -5.031000000    -4.033000000
O    -0.161000000    -1.793000000     4.781000000
H     0.707000000    -2.187000000     4.686000000
H    -0.025000000    -0.865000000     4.591000000
O    -0.648000000     1.362000000    -6.060000000
H    -0.311000000     1.260000000    -6.950000000
H     0.127000000     1.552000000    -5.531000000
O    -1.914000000     3.076000000     6.346000000
H    -2.581000000     2.706000000     5.767000000
H    -2.138000000     4.004000000     6.406000000
O     3.661000000    -2.923000000    -2.153000000
H     3.754000000    -3.524000000    -1.413000000
H     4.433000000    -2.360000000    -2.103000000
O     4.064000000    -0.941000000     2.225000000
H     4.616000000    -0.457000000     1.611000000
H     3.600000000    -0.263000000     2.716000000
O    -5.722000000     2.030000000     3.296000000
H    -5.979000000     2.928000000     3.086000000
H    -4.778000000     2.081000000     3.446000000
O    -0.994000000    -5.983000000    -1.386000000
H    -0.927000000    -5.101000000    -1.020000000
H    -0.389000000    -6.506000000    -0.860000000
O    -0.349000000    -3.783000000     6.622000000
H    -0.123000000    -3.122000000     5.968000000
H    -0.985000000    -4.347000000     6.183000000
O    -5.132000000     0.800000000    -4.473000000
H    -5.179000000     0.527000000    -5.389000000
H    -4.317000000     0.415000000    -4.150000000
O     2.173000000     4.829000000     5.675000000
H     1.806000000     4.086000000     6.154000000
H     1.865000000     4.710000000     4.776000000
O     1.100000000     4.172000000     3.215000000
H     0.659000000     5.005000000     3.049000000
H     0.401000000     3.519000000     3.181000000
O    -2.737000000     4.150000000     2.467000000
H    -3.081000000     3.705000000     1.693000000
H    -1.981000000     3.625000000     2.729000000
O    -3.291000000     1.294000000     4.218000000
H    -2.480000000     1.302000000     3.711000000
H    -3.306000000     0.432000000     4.634000000
O     0.218000000     0.183000000     7.257000000
H     0.201000000     0.338000000     6.313000000
H     0.897000000     0.772000000     7.585000000
O     2.978000000    -0.327000000     6.041000000
H     2.421000000    -1.001000000     5.652000000
H     3.767000000    -0.796000000     6.312000000
O    -2.564000000    -4.055000000    -4.192000000
H    -2.798000000    -4.829000000    -4.704000000
H    -1.984000000    -3.554000000    -4.765000000
O    -1.271000000    -3.495000000    -0.749000000
H    -0.825000000    -2.805000000    -0.257000000
H    -1.006000000    -3.351000000    -1.657000000
O    -3.317000000    -1.155000000    -3.119000000
H    -3.133000000    -0.519000000    -2.428000000
H    -4.040000000    -1.680000000    -2.776000000
O     0.460000000    -3.272000000    -5.147000000
H     1.238000000    -2.848000000    -4.784000000
H    -0.225000000    -2.606000000    -5.087000000
O    -3.631000000     3.052000000     0.254000000
H    -4.456000000     3.513000000     0.098000000
H    -3.648000000     2.317000000    -0.358000000
O     4.860000000     1.222000000     0.666000000
H     4.605000000     1.351000000    -0.247000000
H     5.464000000     1.942000000     0.850000000
O     2.752000000     0.870000000     3.745000000
H     1.798000000     0.798000000     3.793000000
H     3.057000000     0.579000000     4.604000000
O     1.694000000     1.765000000    -4.688000000
H     1.938000000     2.686000000    -4.782000000
H     2.057000000     1.342000000    -5.467000000
O     1.775000000     3.103000000    -1.517000000
H     1.419000000     2.548000000    -0.823000000
H     2.175000000     2.489000000    -2.134000000
O     3.342000000    -3.511000000     1.894000000
H     3.722000000    -3.709000000     1.038000000
H     3.494000000    -2.574000000     2.013000000
O     4.454000000     1.236000000    -2.139000000
H     4.250000000     2.163000000    -2.261000000
H     4.190000000     0.823000000    -2.962000000
O    -0.967000000     3.600000000    -3.387000000
H    -0.840000000     4.247000000    -2.692000000
H    -0.262000000     2.966000000    -3.256000000
