161
-3070.87381
C    -0.549000000     1.356000000    -0.116000000
H    -0.738000000     2.419000000    -0.240000000
C     0.302000000     0.725000000    -1.028000000
H     0.559000000     1.225000000    -1.959000000
C     0.693000000    -0.591000000    -0.777000000
C     1.478000000    -1.246000000    -1.859000000
H     0.845000000    -1.132000000    -2.742000000
H     2.425000000    -0.804000000    -2.176000000
H     1.565000000    -2.327000000    -1.734000000
C     0.403000000    -1.228000000     0.388000000
H     0.776000000    -2.239000000     0.526000000
C    -0.412000000    -0.614000000     1.275000000
H    -0.650000000    -1.068000000     2.234000000
C    -0.860000000     0.729000000     1.085000000
C    -1.644000000     1.429000000     2.143000000
O    -2.325000000     0.751000000     2.888000000
O    -1.867000000     2.617000000     2.087000000
O     3.834000000    -3.494000000    -0.190000000
H     3.968000000    -2.645000000     0.233000000
H     3.756000000    -4.113000000     0.535000000
O     3.474000000     2.118000000    -1.892000000
H     3.340000000     1.661000000    -2.722000000
H     3.149000000     3.004000000    -2.052000000
O    -2.259000000    -1.777000000     3.750000000
H    -2.008000000    -0.880000000     3.528000000
H    -2.973000000    -1.676000000     4.380000000
O    -1.086000000     2.640000000    -4.041000000
H    -0.319000000     2.165000000    -3.721000000
H    -1.000000000     3.516000000    -3.664000000
O    -2.111000000     5.978000000     0.013000000
H    -2.495000000     5.110000000    -0.116000000
H    -2.751000000     6.444000000     0.552000000
O     3.924000000     4.683000000     0.742000000
H     4.651000000     4.186000000     1.115000000
H     3.272000000     4.020000000     0.515000000
O    -3.233000000     4.187000000     3.937000000
H    -2.924000000     3.502000000     3.343000000
H    -3.584000000     3.711000000     4.689000000
O    -2.735000000    -0.733000000    -1.393000000
H    -1.785000000    -0.695000000    -1.280000000
H    -3.078000000    -0.829000000    -0.505000000
O     4.621000000     0.530000000    -3.793000000
H     5.370000000     0.946000000    -4.218000000
H     4.982000000    -0.261000000    -3.392000000
O    -1.569000000     1.685000000     7.836000000
H    -0.978000000     2.246000000     8.336000000
H    -1.335000000     1.845000000     6.921000000
O     1.551000000    -5.898000000    -3.465000000
H     0.603000000    -5.946000000    -3.589000000
H     1.662000000    -5.754000000    -2.525000000
O     1.597000000     5.763000000    -0.192000000
H     1.025000000     5.396000000     0.482000000
H     2.434000000     5.899000000     0.252000000
O    -6.757000000    -0.074000000     2.836000000
H    -6.007000000     0.358000000     3.243000000
H    -6.834000000     0.337000000     1.976000000
O     1.519000000    -4.101000000     4.359000000
H     1.933000000    -4.194000000     5.217000000
H     0.776000000    -3.517000000     4.513000000
O    -0.655000000    -4.123000000    -1.723000000
H     0.087000000    -4.490000000    -1.242000000
H    -1.426000000    -4.458000000    -1.266000000
O     3.122000000    -4.632000000     2.051000000
H     2.441000000    -4.279000000     2.624000000
H     3.892000000    -4.710000000     2.615000000
O     0.982000000    -3.120000000    -5.877000000
H     1.286000000    -3.439000000    -6.727000000
H     1.611000000    -2.439000000    -5.638000000
O     0.707000000     4.272000000     5.508000000
H     1.390000000     4.659000000     6.056000000
H     0.061000000     4.970000000     5.402000000
O    -0.199000000     6.992000000     2.329000000
H    -1.129000000     7.197000000     2.233000000
H    -0.158000000     6.037000000     2.272000000
O     3.754000000    -5.444000000    -5.070000000
H     3.302000000    -5.995000000    -5.709000000
H     3.128000000    -5.348000000    -4.352000000
O    -0.966000000     1.906000000     5.175000000
H    -0.814000000     2.851000000     5.144000000
H    -1.217000000     1.674000000     4.281000000
O    -2.526000000     1.238000000    -5.866000000
H    -3.406000000     1.195000000    -5.492000000
H    -2.049000000     1.835000000    -5.288000000
O     2.405000000     1.334000000    -5.162000000
H     3.273000000     0.950000000    -5.036000000
H     2.578000000     2.198000000    -5.536000000
O    -3.911000000     2.766000000     6.114000000
H    -3.303000000     2.031000000     6.195000000
H    -4.268000000     2.881000000     6.995000000
O     2.619000000     0.685000000     2.561000000
H     3.154000000    -0.011000000     2.180000000
H     3.055000000     0.897000000     3.387000000
O    -2.611000000    -3.940000000     2.265000000
H    -2.071000000    -3.209000000     2.566000000
H    -3.230000000    -4.090000000     2.980000000
O    -4.046000000    -1.491000000     5.791000000
H    -4.916000000    -1.618000000     5.411000000
H    -4.214000000    -1.279000000     6.709000000
O     0.218000000     4.141000000     2.054000000
H     0.787000000     3.482000000     1.656000000
H    -0.628000000     3.702000000     2.147000000
O    -3.595000000    -0.971000000     1.323000000
H    -3.017000000    -1.566000000     1.802000000
H    -3.334000000    -0.098000000     1.614000000
O     2.097000000     2.448000000     0.672000000
H     2.184000000     1.835000000     1.402000000
H     2.078000000     1.893000000    -0.107000000
O     4.681000000    -1.025000000     1.237000000
H     5.356000000    -1.075000000     1.914000000
H     4.908000000    -0.247000000     0.729000000
O    -3.582000000     3.706000000     0.279000000
H    -4.203000000     3.787000000     1.002000000
H    -2.820000000     3.274000000     0.665000000
O    -4.652000000     1.252000000     3.950000000
H    -3.863000000     1.090000000     3.432000000
H    -4.336000000     1.705000000     4.732000000
O     4.326000000    -2.674000000    -5.376000000
H     4.486000000    -2.627000000    -4.434000000
H     4.285000000    -3.611000000    -5.567000000
O    -3.071000000    -2.483000000    -3.583000000
H    -2.211000000    -2.862000000    -3.762000000
H    -2.911000000    -1.840000000    -2.892000000
O    -0.688000000    -2.534000000     5.829000000
H    -1.348000000    -2.337000000     5.165000000
H    -1.191000000    -2.841000000     6.583000000
O    -4.342000000     5.038000000    -2.319000000
H    -4.129000000     4.451000000    -1.594000000
H    -4.879000000     5.724000000    -1.923000000
O    -0.980000000    -4.072000000    -4.393000000
H    -0.672000000    -4.138000000    -3.489000000
H    -0.195000000    -3.859000000    -4.898000000
O     4.854000000    -2.447000000    -2.800000000
H     5.679000000    -2.932000000    -2.753000000
H     4.326000000    -2.803000000    -2.087000000
O     0.777000000    -0.377000000     6.323000000
H     0.114000000     0.300000000     6.190000000
H     0.299000000    -1.202000000     6.234000000
O    -1.536000000     5.965000000     4.963000000
H    -2.090000000     6.466000000     5.561000000
H    -2.111000000     5.277000000     4.625000000
O    -1.337000000    -6.225000000     1.347000000
H    -1.846000000    -5.431000000     1.508000000
H    -0.566000000    -6.134000000     1.906000000
O    -5.961000000    -2.448000000     1.067000000
H    -5.148000000    -1.945000000     1.022000000
H    -6.622000000    -1.869000000     0.688000000
O     2.200000000     4.509000000    -2.434000000
H     1.935000000     5.100000000    -1.729000000
H     1.776000000     4.864000000    -3.216000000
O     5.473000000     0.956000000    -0.451000000
H     5.419000000     1.685000000     0.166000000
H     4.721000000     1.076000000    -1.031000000
O     1.763000000    -5.129000000    -0.896000000
H     1.789000000    -5.592000000    -0.058000000
H     2.567000000    -4.609000000    -0.907000000
O    -0.800000000     5.104000000    -2.606000000
H    -0.888000000     5.697000000    -1.860000000
H     0.011000000     5.377000000    -3.035000000
O    -4.853000000     2.079000000    -2.757000000
H    -4.446000000     1.682000000    -1.987000000
H    -4.144000000     2.561000000    -3.182000000
