161
-3022.22766
C    -1.086000000     0.816000000     0.612000000
H    -1.951000000     1.426000000     0.858000000
C    -1.044000000     0.391000000    -0.713000000
H    -1.869000000     0.508000000    -1.411000000
C     0.048000000    -0.302000000    -1.179000000
C     0.029000000    -0.855000000    -2.573000000
H     0.005000000     0.047000000    -3.189000000
H     0.920000000    -1.472000000    -2.699000000
H    -0.906000000    -1.378000000    -2.782000000
C     1.128000000    -0.611000000    -0.379000000
H     1.911000000    -1.250000000    -0.779000000
C     1.056000000    -0.260000000     0.953000000
H     1.855000000    -0.522000000     1.642000000
C     0.030000000     0.559000000     1.480000000
C     0.010000000     0.931000000     3.015000000
O     0.859000000     0.504000000     3.713000000
O    -1.002000000     1.461000000     3.434000000
O     1.364000000     6.171000000     3.756000000
H     0.833000000     5.444000000     3.430000000
H     1.683000000     5.871000000     4.608000000
O    -1.677000000    -1.080000000     6.208000000
H    -0.775000000    -1.334000000     6.403000000
H    -1.955000000    -0.577000000     6.974000000
O    -3.391000000    -2.408000000    -4.490000000
H    -4.211000000    -1.928000000    -4.602000000
H    -2.846000000    -2.128000000    -5.225000000
O    -0.013000000     3.916000000     2.254000000
H    -0.518000000     3.230000000     2.691000000
H     0.483000000     3.455000000     1.578000000
O     0.474000000     2.840000000     5.663000000
H     0.138000000     2.020000000     5.301000000
H    -0.304000000     3.297000000     5.983000000
O     4.198000000    -0.740000000     3.718000000
H     4.217000000     0.177000000     3.444000000
H     3.501000000    -0.779000000     4.373000000
O     2.995000000     2.343000000     3.620000000
H     3.065000000     2.971000000     4.339000000
H     2.096000000     2.019000000     3.672000000
O     1.646000000    -4.133000000     2.436000000
H     1.151000000    -4.869000000     2.796000000
H     1.213000000    -3.356000000     2.791000000
O     3.275000000    -5.628000000    -5.082000000
H     3.437000000    -6.462000000    -4.641000000
H     2.799000000    -5.104000000    -4.437000000
O    -5.152000000     0.759000000     2.462000000
H    -5.887000000     0.254000000     2.114000000
H    -4.499000000     0.100000000     2.698000000
O     2.458000000    -4.962000000     0.009000000
H     3.148000000    -5.498000000     0.399000000
H     2.053000000    -4.514000000     0.752000000
O     2.525000000     1.081000000    -5.178000000
H     1.637000000     1.018000000    -4.826000000
H     2.574000000     0.382000000    -5.831000000
O    -2.450000000     0.831000000    -5.766000000
H    -2.673000000     1.592000000    -5.229000000
H    -1.997000000     1.198000000    -6.525000000
O    -0.523000000    -4.822000000    -6.567000000
H    -0.356000000    -4.885000000    -5.627000000
H    -0.111000000    -5.604000000    -6.936000000
O     0.690000000    -2.142000000     4.063000000
H     0.839000000    -1.216000000     3.870000000
H     1.506000000    -2.437000000     4.468000000
O    -1.262000000    -1.442000000    -6.171000000
H    -0.785000000    -1.644000000    -5.366000000
H    -1.544000000    -0.534000000    -6.062000000
O     2.349000000    -4.578000000    -2.635000000
H     2.358000000    -4.859000000    -1.720000000
H     3.119000000    -4.016000000    -2.720000000
O    -5.518000000     2.243000000    -1.033000000
H    -5.541000000     2.651000000    -1.898000000
H    -6.414000000     2.322000000    -0.707000000
O     3.877000000    -2.014000000     1.148000000
H     4.075000000    -1.761000000     2.050000000
H     3.198000000    -2.683000000     1.231000000
O     5.097000000     3.273000000     2.103000000
H     4.211000000     2.999000000     2.341000000
H     4.968000000     4.007000000     1.503000000
O    -1.463000000    -3.547000000     2.532000000
H    -0.992000000    -2.858000000     3.002000000
H    -1.600000000    -3.188000000     1.655000000
O     6.305000000     1.386000000     0.390000000
H     6.943000000     2.064000000     0.166000000
H     5.790000000     1.767000000     1.101000000
O    -3.139000000     2.115000000     6.879000000
H    -2.658000000     2.508000000     7.607000000
H    -2.856000000     2.609000000     6.110000000
O    -0.110000000    -5.349000000    -4.001000000
H     0.667000000    -4.985000000    -3.578000000
H    -0.137000000    -6.261000000    -3.709000000
O     4.186000000    -2.702000000    -3.264000000
H     3.983000000    -1.982000000    -2.668000000
H     4.584000000    -2.279000000    -4.024000000
O     2.559000000     4.396000000     5.517000000
H     2.914000000     4.200000000     6.384000000
H     1.700000000     3.973000000     5.509000000
O    -5.876000000    -0.731000000    -0.850000000
H    -5.767000000     0.215000000    -0.748000000
H    -6.072000000    -0.850000000    -1.780000000
O     1.273000000     2.812000000    -7.400000000
H     2.084000000     2.795000000    -7.908000000
H     1.551000000     2.641000000    -6.500000000
O     4.967000000     0.640000000     6.885000000
H     4.055000000     0.539000000     6.614000000
H     5.391000000     1.072000000     6.144000000
O    -1.786000000     5.056000000     6.320000000
H    -2.291000000     5.869000000     6.354000000
H    -2.188000000     4.553000000     5.613000000
O    -2.443000000     3.282000000     4.410000000
H    -3.341000000     3.251000000     4.081000000
H    -1.981000000     2.610000000     3.909000000
O    -2.846000000    -0.592000000     3.368000000
H    -2.417000000     0.253000000     3.230000000
H    -2.497000000    -0.905000000     4.202000000
O    -4.392000000     3.926000000     0.724000000
H    -4.885000000     3.261000000     0.243000000
H    -3.917000000     4.408000000     0.047000000
O     2.983000000    -3.244000000     5.305000000
H     2.359000000    -3.950000000     5.469000000
H     3.467000000    -3.528000000     4.530000000
O    -2.190000000    -4.449000000    -2.629000000
H    -2.466000000    -3.672000000    -3.114000000
H    -1.619000000    -4.920000000    -3.236000000
O    -3.195000000    -2.265000000     0.022000000
H    -3.768000000    -2.133000000    -0.734000000
H    -2.311000000    -2.144000000    -0.324000000
O    -5.545000000     2.118000000    -4.487000000
H    -5.278000000     2.387000000    -5.366000000
H    -4.736000000     1.815000000    -4.074000000
O    -4.743000000     3.308000000     3.238000000
H    -4.586000000     3.842000000     2.460000000
H    -4.861000000     2.420000000     2.899000000
O     4.816000000    -0.968000000    -1.144000000
H     4.555000000    -1.046000000    -0.227000000
H     4.894000000    -0.026000000    -1.292000000
O     2.215000000    -0.055000000     6.262000000
H     1.889000000     0.137000000     5.383000000
H     1.538000000    -0.606000000     6.654000000
O    -0.417000000    -3.404000000    -0.050000000
H    -0.621000000    -3.567000000    -0.971000000
H     0.363000000    -3.933000000     0.119000000
O    -2.265000000     3.064000000    -4.155000000
H    -1.942000000     3.782000000    -4.699000000
H    -1.500000000     2.778000000    -3.656000000
O    -3.737000000    -2.492000000     5.204000000
H    -2.981000000    -2.089000000     5.630000000
H    -3.929000000    -1.918000000     4.463000000
O     0.152000000     2.610000000    -2.746000000
H     1.013000000     2.953000000    -2.508000000
H    -0.256000000     2.384000000    -1.910000000
O     6.248000000    -3.592000000     0.723000000
H     5.661000000    -3.110000000     0.141000000
H     6.795000000    -4.112000000     0.135000000
O    -3.471000000     4.936000000    -2.070000000
H    -4.364000000     4.837000000    -2.399000000
H    -2.932000000     4.440000000    -2.686000000
O     4.491000000     2.631000000    -3.552000000
H     4.262000000     3.312000000    -2.919000000
H     3.672000000     2.447000000    -4.012000000
O     1.205000000     4.149000000    -0.561000000
H     0.704000000     4.958000000    -0.452000000
H     1.940000000     4.396000000    -1.123000000
