161
-3060.01510
C    -0.474000000     0.732000000    -1.224000000
H    -0.652000000     1.357000000    -2.096000000
C     0.586000000     1.088000000    -0.363000000
H     1.068000000     2.043000000    -0.555000000
C     0.976000000     0.325000000     0.768000000
C     2.064000000     0.826000000     1.741000000
H     1.758000000     0.562000000     2.756000000
H     3.034000000     0.403000000     1.470000000
H     2.130000000     1.901000000     1.563000000
C     0.252000000    -0.837000000     1.000000000
H     0.482000000    -1.495000000     1.834000000
C    -0.782000000    -1.227000000     0.108000000
H    -1.416000000    -2.053000000     0.420000000
C    -1.201000000    -0.437000000    -0.950000000
C    -2.340000000    -0.913000000    -1.873000000
O    -3.043000000    -1.924000000    -1.671000000
O    -2.444000000    -0.343000000    -2.934000000
O     5.910000000    -3.720000000     1.849000000
H     5.523000000    -2.947000000     1.437000000
H     5.881000000    -3.531000000     2.787000000
O    -2.433000000     2.033000000     0.594000000
H    -1.802000000     1.406000000     0.240000000
H    -3.037000000     1.499000000     1.109000000
O     0.432000000    -4.483000000    -3.026000000
H     0.291000000    -4.173000000    -3.920000000
H     0.626000000    -5.415000000    -3.123000000
O    -0.595000000     6.068000000    -0.777000000
H    -0.246000000     6.855000000    -1.197000000
H    -0.544000000     6.254000000     0.160000000
O     4.431000000    -1.938000000     0.151000000
H     4.674000000    -1.441000000    -0.629000000
H     3.607000000    -2.365000000    -0.083000000
O     4.516000000    -0.499000000    -2.311000000
H     4.989000000     0.298000000    -2.073000000
H     5.023000000    -0.872000000    -3.032000000
O     1.952000000    -0.852000000    -5.874000000
H     1.059000000    -0.676000000    -5.578000000
H     1.980000000    -0.510000000    -6.768000000
O    -4.554000000    -1.102000000    -4.266000000
H    -4.446000000    -0.670000000    -5.113000000
H    -3.792000000    -0.826000000    -3.757000000
O    -4.220000000     0.732000000     2.357000000
H    -4.683000000     1.084000000     3.117000000
H    -4.914000000     0.511000000     1.736000000
O     3.494000000     4.915000000     1.968000000
H     3.808000000     4.011000000     1.933000000
H     3.359000000     5.157000000     1.052000000
O     4.571000000    -3.312000000     4.207000000
H     3.693000000    -3.652000000     4.036000000
H     4.424000000    -2.489000000     4.672000000
O    -6.320000000    -5.540000000    -2.411000000
H    -6.474000000    -4.596000000    -2.424000000
H    -5.946000000    -5.710000000    -1.546000000
O     3.917000000    -0.530000000     4.530000000
H     4.442000000     0.169000000     4.918000000
H     4.312000000    -0.678000000     3.670000000
O     1.482000000    -0.250000000     6.215000000
H     1.984000000    -0.512000000     5.443000000
H     0.774000000    -0.893000000     6.268000000
O    -0.553000000    -1.440000000    -4.936000000
H    -1.157000000    -1.901000000    -5.519000000
H    -1.059000000    -1.288000000    -4.138000000
O    -4.822000000    -5.608000000     0.056000000
H    -5.547000000    -5.217000000     0.545000000
H    -4.322000000    -4.860000000    -0.270000000
O     1.656000000    -4.899000000     1.253000000
H     1.757000000    -4.287000000     0.524000000
H     1.907000000    -5.748000000     0.889000000
O     2.204000000     4.197000000     5.836000000
H     1.638000000     3.537000000     5.435000000
H     2.375000000     4.824000000     5.134000000
O     1.796000000    -4.394000000     3.972000000
H     1.972000000    -4.514000000     3.039000000
H     1.892000000    -5.269000000     4.349000000
O    -5.807000000     0.894000000    -1.893000000
H    -5.082000000     0.769000000    -2.506000000
H    -6.593000000     0.825000000    -2.435000000
O     1.970000000    -2.959000000    -0.628000000
H     1.612000000    -2.096000000    -0.421000000
H     1.537000000    -3.209000000    -1.444000000
O    -1.796000000     3.749000000    -1.430000000
H    -1.284000000     4.463000000    -1.051000000
H    -2.188000000     3.309000000    -0.676000000
O     2.312000000     6.167000000    -0.114000000
H     1.986000000     6.624000000    -0.889000000
H     1.553000000     6.112000000     0.468000000
O    -1.944000000    -7.156000000    -1.595000000
H    -1.970000000    -6.258000000    -1.265000000
H    -1.065000000    -7.465000000    -1.377000000
O     0.588000000     2.245000000     5.185000000
H    -0.127000000     1.820000000     4.712000000
H     1.112000000     1.520000000     5.528000000
O    -6.000000000    -0.553000000     0.443000000
H    -5.725000000    -0.033000000    -0.312000000
H    -6.938000000    -0.692000000     0.310000000
O    -1.725000000    -3.227000000    -6.479000000
H    -2.152000000    -3.949000000    -6.941000000
H    -1.119000000    -2.858000000    -7.121000000
O    -0.479000000     4.633000000    -3.710000000
H    -0.980000000     4.500000000    -4.514000000
H    -1.064000000     4.339000000    -3.011000000
O    -1.336000000    -4.245000000    -1.138000000
H    -0.628000000    -4.221000000    -1.781000000
H    -1.908000000    -3.518000000    -1.382000000
O    -4.238000000     3.609000000    -2.883000000
H    -4.026000000     2.951000000    -3.545000000
H    -3.400000000     3.807000000    -2.466000000
O     7.046000000     3.647000000     0.742000000
H     7.014000000     4.453000000     0.226000000
H     6.238000000     3.659000000     1.255000000
O    -1.053000000    -4.625000000     1.685000000
H    -0.099000000    -4.686000000     1.639000000
H    -1.314000000    -4.310000000     0.820000000
O     3.103000000     1.537000000     7.429000000
H     2.416000000     1.874000000     8.004000000
H     2.688000000     0.812000000     6.961000000
O    -3.889000000     0.716000000    -6.085000000
H    -3.114000000     0.700000000    -6.646000000
H    -3.999000000     1.639000000    -5.855000000
O    -1.662000000     2.076000000    -4.448000000
H    -1.911000000     1.335000000    -3.895000000
H    -0.708000000     2.116000000    -4.378000000
O     2.016000000    -1.404000000    -2.899000000
H     1.732000000    -0.915000000    -3.672000000
H     2.852000000    -1.005000000    -2.657000000
O     2.320000000     3.237000000    -3.033000000
H     2.883000000     3.937000000    -2.703000000
H     1.453000000     3.637000000    -3.097000000
O    -1.535000000     0.672000000     3.454000000
H    -2.406000000     0.613000000     3.061000000
H    -1.037000000    -0.033000000     3.040000000
O     6.059000000     1.481000000    -1.728000000
H     5.795000000     2.401000000    -1.738000000
H     6.986000000     1.500000000    -1.489000000
O    -3.513000000    -4.352000000     2.983000000
H    -2.673000000    -4.760000000     2.773000000
H    -3.816000000    -3.986000000     2.152000000
O    -4.008000000    -5.567000000    -4.598000000
H    -3.649000000    -4.706000000    -4.384000000
H    -4.818000000    -5.622000000    -4.090000000
O    -4.185000000    -1.710000000    -7.869000000
H    -3.612000000    -2.007000000    -7.163000000
H    -3.952000000    -0.790000000    -7.996000000
O    -0.229000000    -3.351000000     5.367000000
H    -0.971000000    -2.843000000     5.040000000
H     0.275000000    -3.570000000     4.584000000
O    -5.906000000    -2.769000000    -2.638000000
H    -5.292000000    -2.577000000    -1.930000000
H    -5.611000000    -2.221000000    -3.366000000
O     5.391000000     2.900000000     2.845000000
H     5.774000000     2.045000000     3.042000000
H     5.688000000     3.465000000     3.559000000
O    -4.206000000    -2.771000000     0.498000000
H    -5.018000000    -2.269000000     0.564000000
H    -3.707000000    -2.331000000    -0.190000000
O     5.561000000     0.019000000     1.910000000
H     4.940000000    -0.449000000     1.351000000
H     6.372000000     0.041000000     1.403000000
O    -3.037000000    -2.368000000     5.032000000
H    -3.000000000    -3.129000000     4.452000000
H    -3.862000000    -1.937000000     4.809000000
