161
-3025.00161
C    -0.069000000    -1.108000000    -0.885000000
H     0.016000000    -1.859000000    -1.667000000
C     0.564000000     0.072000000    -1.198000000
H     1.009000000     0.267000000    -2.170000000
C     0.538000000     1.101000000    -0.266000000
C     1.098000000     2.396000000    -0.592000000
H     1.973000000     2.202000000    -1.217000000
H     0.468000000     3.155000000    -1.059000000
H     1.532000000     2.824000000     0.314000000
C    -0.200000000     0.943000000     0.940000000
H    -0.328000000     1.848000000     1.529000000
C    -0.748000000    -0.323000000     1.294000000
H    -1.168000000    -0.469000000     2.285000000
C    -0.645000000    -1.418000000     0.387000000
C    -1.256000000    -2.811000000     0.676000000
O    -1.562000000    -3.137000000     1.788000000
O    -1.223000000    -3.687000000    -0.153000000
O    -0.179000000     4.420000000    -3.901000000
H    -0.401000000     3.570000000    -4.282000000
H    -0.352000000     5.049000000    -4.602000000
O     4.878000000     4.937000000    -1.822000000
H     5.329000000     5.599000000    -2.345000000
H     3.964000000     4.994000000    -2.100000000
O    -1.825000000    -1.001000000    -6.695000000
H    -1.587000000    -1.372000000    -5.846000000
H    -2.084000000    -1.757000000    -7.223000000
O     4.048000000     4.094000000     2.273000000
H     4.360000000     4.702000000     1.603000000
H     4.841000000     3.661000000     2.592000000
O    -2.282000000    -7.835000000    -1.172000000
H    -3.059000000    -8.169000000    -0.724000000
H    -1.672000000    -8.572000000    -1.175000000
O    -0.977000000    -2.206000000     4.219000000
H    -1.202000000    -1.275000000     4.222000000
H    -1.210000000    -2.506000000     3.341000000
O    -2.504000000     6.644000000    -1.730000000
H    -2.511000000     6.680000000    -0.774000000
H    -1.887000000     5.942000000    -1.939000000
O    -0.711000000     4.474000000     1.915000000
H     0.066000000     4.206000000     2.407000000
H    -0.369000000     4.784000000     1.077000000
O     2.436000000    -5.337000000    -0.725000000
H     1.661000000    -5.681000000    -1.169000000
H     2.127000000    -4.546000000    -0.282000000
O     3.031000000    -2.581000000    -0.290000000
H     2.786000000    -2.051000000     0.468000000
H     3.045000000    -1.963000000    -1.021000000
O    -3.091000000     5.178000000     2.852000000
H    -2.249000000     4.772000000     2.648000000
H    -3.024000000     5.419000000     3.776000000
O     3.339000000    -1.483000000    -5.522000000
H     3.188000000    -1.092000000    -6.382000000
H     2.729000000    -2.220000000    -5.483000000
O    -4.607000000     0.599000000     3.484000000
H    -5.111000000     1.402000000     3.352000000
H    -4.792000000     0.070000000     2.708000000
O    -0.679000000    -3.197000000    -5.033000000
H     0.212000000    -3.439000000    -4.779000000
H    -1.174000000    -3.211000000    -4.214000000
O    -2.444000000    -7.132000000    -3.855000000
H    -2.585000000    -7.255000000    -2.916000000
H    -1.529000000    -7.376000000    -3.994000000
O     2.565000000     1.700000000     2.658000000
H     3.351000000     2.187000000     2.412000000
H     2.402000000     1.950000000     3.568000000
O     1.839000000     3.868000000    -6.055000000
H     2.338000000     3.314000000    -6.655000000
H     1.069000000     3.346000000    -5.831000000
O    -5.402000000    -5.533000000     2.411000000
H    -6.225000000    -5.471000000     1.927000000
H    -5.009000000    -4.664000000     2.327000000
O     0.274000000    -7.269000000     2.279000000
H     0.016000000    -7.733000000     3.075000000
H    -0.349000000    -6.545000000     2.212000000
O    -2.941000000    -2.310000000     6.198000000
H    -2.200000000    -2.406000000     5.600000000
H    -3.688000000    -2.128000000     5.627000000
O    -5.803000000    -2.533000000     0.299000000
H    -5.303000000    -2.769000000     1.080000000
H    -5.475000000    -3.120000000    -0.382000000
O     1.837000000     4.662000000     3.824000000
H     2.035000000     4.149000000     4.607000000
H     2.628000000     4.600000000     3.289000000
O     1.917000000    -2.969000000     3.950000000
H     1.977000000    -3.552000000     3.193000000
H     1.006000000    -2.675000000     3.954000000
O    -2.142000000    -3.633000000    -2.580000000
H    -2.346000000    -4.556000000    -2.731000000
H    -1.909000000    -3.588000000    -1.652000000
O     2.428000000    -0.695000000     1.431000000
H     1.510000000    -0.751000000     1.164000000
H     2.541000000     0.214000000     1.709000000
O    -0.365000000    -4.905000000     5.636000000
H    -1.089000000    -5.200000000     5.084000000
H    -0.501000000    -3.961000000     5.724000000
O    -2.228000000    -5.752000000     1.184000000
H    -1.912000000    -4.933000000     0.804000000
H    -2.993000000    -5.982000000     0.657000000
O     0.474000000    -7.422000000    -3.734000000
H     1.014000000    -8.123000000    -3.370000000
H     0.367000000    -6.802000000    -3.013000000
O     1.074000000     6.651000000     2.172000000
H     1.371000000     7.468000000     2.571000000
H     1.226000000     5.987000000     2.844000000
O    -5.037000000    -1.705000000     4.739000000
H    -4.986000000    -0.831000000     4.353000000
H    -5.882000000    -1.719000000     5.189000000
O     0.891000000     6.090000000    -0.315000000
H     0.909000000     6.261000000     0.627000000
H     0.822000000     6.957000000    -0.714000000
O    -4.488000000    -0.096000000     0.893000000
H    -5.176000000    -0.473000000     0.346000000
H    -3.849000000     0.250000000     0.270000000
O     2.211000000    -0.697000000     6.096000000
H     2.343000000     0.235000000     6.268000000
H     1.747000000    -0.723000000     5.259000000
O    -5.111000000    -3.771000000    -2.252000000
H    -4.538000000    -3.085000000    -2.594000000
H    -5.482000000    -4.185000000    -3.031000000
O     1.962000000     5.509000000    -2.812000000
H     1.626000000     5.642000000    -1.926000000
H     1.247000000     5.073000000    -3.277000000
O     1.905000000    -4.998000000     2.150000000
H     2.152000000    -5.181000000     1.243000000
H     1.469000000    -5.797000000     2.446000000
O    -2.947000000    -5.645000000     4.108000000
H    -3.879000000    -5.609000000     3.893000000
H    -2.504000000    -5.402000000     3.295000000
O    -4.292000000    -3.164000000     2.285000000
H    -3.339000000    -3.200000000     2.203000000
H    -4.445000000    -2.632000000     3.066000000
O    -2.526000000     0.756000000    -1.361000000
H    -2.553000000     1.377000000    -0.633000000
H    -1.627000000     0.428000000    -1.364000000
O    -3.384000000     3.983000000    -2.841000000
H    -4.102000000     4.392000000    -2.358000000
H    -3.002000000     3.360000000    -2.222000000
O     2.001000000    -3.703000000    -5.231000000
H     1.707000000    -3.639000000    -6.140000000
H     2.100000000    -4.643000000    -5.077000000
O    -2.727000000     3.003000000     0.084000000
H    -3.472000000     3.031000000     0.684000000
H    -1.987000000     3.314000000     0.606000000
O     4.881000000     1.440000000    -2.298000000
H     4.140000000     0.848000000    -2.171000000
H     5.184000000     1.258000000    -3.187000000
O     6.189000000     2.854000000    -0.457000000
H     5.784000000     3.721000000    -0.433000000
H     5.780000000     2.417000000    -1.203000000
O    -3.668000000    -1.424000000    -3.219000000
H    -3.578000000    -0.593000000    -2.753000000
H    -2.831000000    -1.868000000    -3.080000000
O     3.422000000    -1.169000000    -2.604000000
H     3.064000000    -1.184000000    -3.492000000
H     4.343000000    -1.403000000    -2.713000000
O    -0.153000000    -5.945000000    -1.269000000
H    -0.831000000    -6.598000000    -1.097000000
H    -0.440000000    -5.169000000    -0.787000000
O    -1.943000000     0.587000000     4.525000000
H    -1.749000000     1.256000000     5.182000000
H    -2.675000000     0.948000000     4.024000000
