161
-3047.46264
C    -0.158000000    -0.864000000    -1.269000000
H    -0.220000000    -1.351000000    -2.239000000
C     0.515000000     0.361000000    -1.235000000
H     1.013000000     0.653000000    -2.156000000
C     0.687000000     0.993000000     0.006000000
C     1.584000000     2.187000000     0.332000000
H     1.982000000     2.695000000    -0.549000000
H     1.057000000     3.037000000     0.768000000
H     2.315000000     2.012000000     1.124000000
C    -0.126000000     0.682000000     1.036000000
H    -0.192000000     1.212000000     1.983000000
C    -0.879000000    -0.494000000     0.986000000
H    -1.515000000    -0.843000000     1.795000000
C    -0.821000000    -1.323000000    -0.120000000
C    -1.462000000    -2.674000000    -0.112000000
O    -2.313000000    -2.963000000     0.802000000
O    -1.474000000    -3.317000000    -1.145000000
O     0.644000000    -3.463000000    -7.120000000
H     0.441000000    -2.769000000    -6.493000000
H     0.936000000    -4.196000000    -6.579000000
O    -0.993000000     4.258000000    -2.175000000
H    -0.703000000     5.096000000    -1.814000000
H    -0.530000000     4.183000000    -3.009000000
O     0.201000000     6.192000000    -0.280000000
H     0.982000000     5.963000000     0.225000000
H     0.386000000     7.065000000    -0.624000000
O    -3.116000000     0.072000000    -3.987000000
H    -2.582000000     0.630000000    -3.421000000
H    -2.981000000     0.427000000    -4.866000000
O     5.718000000     4.846000000     1.946000000
H     5.294000000     5.534000000     2.459000000
H     5.926000000     4.164000000     2.585000000
O     2.869000000     5.797000000     1.367000000
H     3.292000000     5.024000000     0.991000000
H     3.245000000     5.873000000     2.244000000
O    -3.305000000     0.652000000     5.264000000
H    -2.840000000     1.479000000     5.392000000
H    -2.670000000    -0.021000000     5.511000000
O    -4.972000000    -4.392000000     3.455000000
H    -5.474000000    -3.749000000     2.955000000
H    -4.417000000    -4.821000000     2.803000000
O    -0.520000000     4.886000000     3.315000000
H    -0.634000000     5.087000000     4.243000000
H    -0.002000000     4.081000000     3.305000000
O     6.113000000    -0.308000000    -1.123000000
H     5.184000000    -0.502000000    -1.254000000
H     6.122000000     0.385000000    -0.463000000
O     5.269000000     2.912000000    -1.904000000
H     5.560000000     3.822000000    -1.855000000
H     5.560000000     2.522000000    -1.080000000
O    -4.431000000    -1.408000000     0.396000000
H    -4.682000000    -1.144000000     1.281000000
H    -3.752000000    -2.070000000     0.526000000
O     1.698000000    -2.206000000    -3.609000000
H     1.351000000    -3.018000000    -3.240000000
H     0.954000000    -1.812000000    -4.064000000
O     3.949000000     3.025000000     3.036000000
H     3.113000000     3.024000000     3.500000000
H     4.551000000     2.569000000     3.625000000
O    -3.516000000    -5.160000000     0.388000000
H    -3.080000000    -4.341000000     0.625000000
H    -3.526000000    -5.157000000    -0.569000000
O     2.216000000    -5.832000000    -0.722000000
H     1.421000000    -6.126000000    -0.277000000
H     2.680000000    -6.641000000    -0.941000000
O    -1.551000000    -5.480000000    -5.161000000
H    -1.650000000    -4.548000000    -5.357000000
H    -2.284000000    -5.899000000    -5.612000000
O     0.778000000    -1.854000000     5.327000000
H    -0.146000000    -1.873000000     5.575000000
H     1.088000000    -2.744000000     5.489000000
O     2.027000000     0.420000000     3.891000000
H     1.750000000    -0.391000000     4.319000000
H     2.776000000     0.163000000     3.354000000
O     3.134000000    -0.553000000     1.099000000
H     2.222000000    -0.262000000     1.062000000
H     3.304000000    -0.917000000     0.230000000
O    -0.174000000    -1.412000000    -5.364000000
H    -1.119000000    -1.553000000    -5.421000000
H    -0.069000000    -0.462000000    -5.418000000
O     0.828000000     7.690000000     2.569000000
H    -0.020000000     7.369000000     2.877000000
H     1.264000000     6.915000000     2.217000000
O     4.722000000    -1.301000000     3.139000000
H     4.151000000    -1.970000000     3.517000000
H     4.211000000    -0.927000000     2.422000000
O    -0.535000000    -5.803000000    -0.100000000
H    -1.334000000    -6.326000000    -0.032000000
H    -0.836000000    -4.944000000    -0.396000000
O    -4.418000000     1.382000000    -0.063000000
H    -3.643000000     1.544000000    -0.600000000
H    -4.536000000     0.433000000    -0.092000000
O    -2.002000000    -1.794000000     5.817000000
H    -1.874000000    -2.410000000     5.096000000
H    -2.662000000    -2.208000000     6.373000000
O     3.673000000    -3.573000000    -1.248000000
H     4.165000000    -3.532000000    -0.428000000
H     3.147000000    -4.370000000    -1.172000000
O     1.159000000     2.898000000     4.057000000
H     0.445000000     2.691000000     4.660000000
H     1.610000000     2.064000000     3.924000000
O     3.782000000    -1.082000000    -1.974000000
H     3.342000000    -0.994000000    -2.819000000
H     3.710000000    -2.012000000    -1.762000000
O    -6.180000000    -3.446000000     0.863000000
H    -5.558000000    -2.971000000     0.311000000
H    -6.718000000    -3.941000000     0.246000000
O    -2.432000000    -2.890000000    -6.040000000
H    -3.300000000    -2.820000000    -6.438000000
H    -2.556000000    -2.584000000    -5.141000000
O    -3.772000000    -6.799000000    -2.116000000
H    -2.870000000    -6.864000000    -2.430000000
H    -4.081000000    -7.704000000    -2.086000000
O     0.750000000    -4.360000000     2.230000000
H     0.562000000    -4.832000000     1.419000000
H     0.879000000    -5.049000000     2.883000000
O    -1.445000000    -3.048000000     3.535000000
H    -1.941000000    -2.903000000     2.729000000
H    -0.650000000    -3.497000000     3.249000000
O    -0.144000000     1.266000000    -4.686000000
H    -0.157000000     1.888000000    -5.413000000
H     0.132000000     1.785000000    -3.930000000
O     4.218000000     0.413000000    -6.227000000
H     4.140000000    -0.457000000    -5.836000000
H     4.160000000     1.015000000    -5.486000000
O    -2.092000000     2.005000000    -1.672000000
H    -1.567000000     2.806000000    -1.686000000
H    -1.584000000     1.396000000    -1.135000000
O     3.914000000     1.821000000    -4.060000000
H     3.143000000     2.387000000    -4.014000000
H     4.267000000     1.826000000    -3.171000000
O    -5.628000000    -3.254000000    -3.393000000
H    -6.152000000    -2.690000000    -3.962000000
H    -4.722000000    -3.002000000    -3.574000000
O    -2.183000000     5.016000000     0.618000000
H    -1.884000000     4.857000000    -0.277000000
H    -1.378000000     5.080000000     1.132000000
O     5.864000000     1.971000000     0.505000000
H     6.525000000     2.064000000     1.191000000
H     5.048000000     2.252000000     0.919000000
O    -2.571000000    -7.688000000     0.770000000
H    -3.236000000    -8.141000000     1.288000000
H    -2.964000000    -6.839000000     0.565000000
O    -0.830000000    -7.609000000    -3.423000000
H    -0.766000000    -6.727000000    -3.790000000
H     0.031000000    -7.997000000    -3.578000000
O    -1.651000000     2.867000000     5.966000000
H    -1.442000000     3.801000000     5.938000000
H    -1.982000000     2.723000000     6.853000000
O    -3.087000000    -2.564000000    -3.350000000
H    -2.577000000    -2.885000000    -2.607000000
H    -3.096000000    -1.613000000    -3.241000000
O     3.802000000    -2.865000000    -5.210000000
H     4.371000000    -3.146000000    -4.493000000
H     2.945000000    -2.742000000    -4.802000000
O     0.512000000    -4.697000000    -2.871000000
H     0.960000000    -4.946000000    -2.063000000
H    -0.313000000    -4.309000000    -2.579000000
O    -4.850000000    -0.887000000     3.035000000
H    -5.626000000    -1.148000000     3.532000000
H    -4.338000000    -0.362000000     3.649000000
