161
-3045.16816
C     0.255000000    -1.035000000    -0.977000000
H     0.523000000    -1.766000000    -1.735000000
C     1.111000000     0.032000000    -0.795000000
H     2.086000000     0.037000000    -1.276000000
C     0.745000000     0.974000000     0.204000000
C     1.700000000     2.082000000     0.576000000
H     2.247000000     2.409000000    -0.310000000
H     1.145000000     2.976000000     0.869000000
H     2.321000000     1.666000000     1.372000000
C    -0.467000000     0.883000000     0.924000000
H    -0.745000000     1.574000000     1.716000000
C    -1.277000000    -0.236000000     0.674000000
H    -2.188000000    -0.458000000     1.224000000
C    -0.952000000    -1.145000000    -0.337000000
C    -1.864000000    -2.346000000    -0.623000000
O    -2.943000000    -2.516000000    -0.003000000
O    -1.690000000    -3.126000000    -1.505000000
O    -1.330000000     3.544000000    -1.667000000
H    -0.745000000     3.989000000    -1.054000000
H    -0.753000000     2.978000000    -2.180000000
O     0.640000000     5.204000000    -0.594000000
H     1.582000000     5.044000000    -0.647000000
H     0.434000000     5.688000000    -1.393000000
O    -3.376000000    -1.221000000    -4.597000000
H    -4.214000000    -0.999000000    -4.191000000
H    -3.174000000    -0.470000000    -5.156000000
O     5.471000000     3.917000000     1.083000000
H     5.257000000     4.800000000     1.383000000
H     4.899000000     3.344000000     1.593000000
O     2.809000000    -5.224000000    -4.750000000
H     2.339000000    -5.398000000    -3.935000000
H     2.675000000    -6.013000000    -5.277000000
O    -3.333000000     1.630000000     3.982000000
H    -2.761000000     0.900000000     4.216000000
H    -3.677000000     1.942000000     4.819000000
O    -5.436000000    -3.815000000     4.097000000
H    -6.089000000    -3.980000000     3.417000000
H    -4.829000000    -3.192000000     3.699000000
O     0.371000000     4.479000000     3.156000000
H     0.598000000     3.603000000     3.468000000
H     1.018000000     5.054000000     3.563000000
O    -4.559000000     3.206000000     2.217000000
H    -4.235000000     3.146000000     1.318000000
H    -4.064000000     2.540000000     2.695000000
O     2.622000000    -5.853000000     0.730000000
H     2.274000000    -6.719000000     0.941000000
H     1.869000000    -5.368000000     0.392000000
O     6.693000000    -0.094000000    -2.430000000
H     5.852000000    -0.521000000    -2.595000000
H     6.633000000     0.210000000    -1.524000000
O    -5.278000000    -7.441000000     0.940000000
H    -4.830000000    -6.596000000     0.920000000
H    -4.615000000    -8.056000000     1.254000000
O     4.997000000     3.296000000    -3.696000000
H     4.920000000     3.795000000    -2.882000000
H     4.816000000     3.934000000    -4.386000000
O    -7.026000000    -4.596000000    -2.487000000
H    -7.642000000    -4.652000000    -3.217000000
H    -6.293000000    -4.086000000    -2.831000000
O     4.386000000     5.073000000    -1.747000000
H     3.908000000     5.882000000    -1.562000000
H     4.992000000     4.980000000    -1.012000000
O    -5.201000000    -1.179000000    -0.101000000
H    -5.152000000    -0.939000000     0.824000000
H    -4.332000000    -1.526000000    -0.305000000
O     1.912000000    -2.464000000    -4.932000000
H     1.929000000    -3.421000000    -4.897000000
H     1.006000000    -2.249000000    -5.152000000
O     5.264000000     2.451000000     3.502000000
H     4.474000000     1.922000000     3.607000000
H     5.857000000     2.133000000     4.183000000
O    -3.964000000    -5.139000000     0.358000000
H    -3.861000000    -4.190000000     0.289000000
H    -3.328000000    -5.495000000    -0.262000000
O     1.768000000    -5.712000000    -2.226000000
H     1.464000000    -6.594000000    -2.011000000
H     1.708000000    -5.230000000    -1.402000000
O    -0.125000000    -5.611000000    -5.760000000
H    -0.350000000    -5.096000000    -4.986000000
H    -0.498000000    -5.120000000    -6.492000000
O     0.438000000    -0.167000000     4.152000000
H    -0.493000000    -0.254000000     4.353000000
H     0.686000000    -1.019000000     3.792000000
O     3.208000000     0.825000000     3.886000000
H     2.309000000     0.763000000     4.210000000
H     3.587000000    -0.035000000     4.065000000
O     3.393000000    -2.330000000     3.684000000
H     3.587000000    -3.252000000     3.512000000
H     2.514000000    -2.200000000     3.329000000
O    -0.737000000    -2.760000000    -5.718000000
H    -1.174000000    -2.080000000    -5.205000000
H    -1.397000000    -3.446000000    -5.818000000
O     0.463000000     2.411000000    -3.428000000
H    -0.083000000     1.739000000    -3.836000000
H     1.353000000     2.200000000    -3.710000000
O     0.108000000    -4.799000000    -0.175000000
H    -0.536000000    -5.394000000     0.208000000
H    -0.416000000    -4.135000000    -0.623000000
O    -5.607000000     0.026000000    -3.092000000
H    -5.447000000     0.970000000    -3.109000000
H    -5.503000000    -0.217000000    -2.172000000
O    -2.153000000    -0.937000000     4.482000000
H    -2.424000000    -1.549000000     3.799000000
H    -2.746000000    -1.114000000     5.213000000
O     0.611000000     2.257000000     5.234000000
H     0.111000000     2.200000000     6.048000000
H     0.518000000     1.393000000     4.834000000
O     4.400000000     6.582000000     1.880000000
H     5.074000000     6.868000000     2.496000000
H     3.610000000     6.496000000     2.413000000
O     4.352000000    -1.448000000    -3.616000000
H     3.461000000    -1.248000000    -3.901000000
H     4.298000000    -2.338000000    -3.266000000
O    -7.133000000    -3.165000000    -0.101000000
H    -7.161000000    -3.528000000    -0.986000000
H    -6.585000000    -2.384000000    -0.180000000
O    -3.261000000    -3.876000000    -5.348000000
H    -4.164000000    -3.901000000    -5.664000000
H    -3.128000000    -2.970000000    -5.070000000
O    -1.905000000    -6.620000000    -1.349000000
H    -2.791000000    -6.660000000    -1.709000000
H    -1.364000000    -7.074000000    -1.996000000
O     0.863000000    -2.525000000     2.772000000
H     0.315000000    -3.099000000     3.308000000
H     0.569000000    -2.682000000     1.875000000
O    -2.917000000    -2.953000000     2.823000000
H    -2.763000000    -2.474000000     2.009000000
H    -3.054000000    -3.859000000     2.545000000
O    -3.302000000     2.293000000    -0.058000000
H    -3.226000000     2.905000000    -0.790000000
H    -2.437000000     1.890000000     0.008000000
O    -7.817000000     0.231000000     0.156000000
H    -7.808000000     0.876000000    -0.551000000
H    -6.977000000    -0.222000000     0.079000000
O     2.842000000     1.490000000    -3.738000000
H     3.323000000     0.875000000    -3.185000000
H     3.403000000     2.265000000    -3.779000000
O    -2.857000000    -6.210000000    -3.993000000
H    -1.965000000    -6.539000000    -4.108000000
H    -2.829000000    -5.319000000    -4.341000000
O    -0.949000000     5.934000000     1.469000000
H    -0.608000000     5.753000000     0.593000000
H    -0.476000000     5.329000000     2.040000000
O     6.522000000     1.059000000     0.011000000
H     6.379000000     1.986000000     0.198000000
H     7.045000000     0.744000000     0.748000000
O    -2.336000000     4.150000000     5.647000000
H    -2.724000000     4.968000000     5.337000000
H    -1.924000000     3.771000000     4.871000000
O    -4.258000000    -3.029000000    -2.625000000
H    -3.756000000    -3.314000000    -1.861000000
H    -3.673000000    -2.425000000    -3.083000000
O     2.629000000     4.219000000     5.400000000
H     3.431000000     3.962000000     4.946000000
H     2.118000000     3.411000000     5.458000000
O    -0.468000000    -4.483000000    -3.367000000
H     0.194000000    -4.798000000    -2.752000000
H    -1.048000000    -3.937000000    -2.836000000
O    -5.088000000    -0.565000000     2.627000000
H    -5.911000000    -0.848000000     3.024000000
H    -4.689000000     0.007000000     3.283000000
