161
-3047.51978
C     0.557000000    -1.374000000    -0.126000000
H     0.869000000    -2.390000000    -0.356000000
C     0.965000000    -0.298000000    -0.914000000
H     1.613000000    -0.480000000    -1.767000000
C     0.369000000     0.933000000    -0.709000000
C     0.744000000     2.094000000    -1.611000000
H     1.157000000     2.872000000    -0.966000000
H     1.419000000     1.787000000    -2.412000000
H    -0.213000000     2.464000000    -1.987000000
C    -0.436000000     1.157000000     0.408000000
H    -0.782000000     2.174000000     0.578000000
C    -0.793000000     0.061000000     1.256000000
H    -1.480000000     0.228000000     2.081000000
C    -0.408000000    -1.221000000     0.901000000
C    -1.004000000    -2.353000000     1.683000000
O    -1.787000000    -2.129000000     2.631000000
O    -0.796000000    -3.528000000     1.312000000
O     5.429000000     0.137000000    -1.757000000
H     5.432000000     0.218000000    -2.710000000
H     6.138000000    -0.478000000    -1.567000000
O    -2.013000000     4.321000000    -3.724000000
H    -1.593000000     4.665000000    -4.513000000
H    -2.174000000     5.094000000    -3.182000000
O    -5.855000000    -1.326000000     5.441000000
H    -5.217000000    -1.156000000     4.748000000
H    -6.633000000    -1.640000000     4.979000000
O     2.420000000    -1.672000000    -4.367000000
H     3.157000000    -1.135000000    -4.076000000
H     2.008000000    -1.157000000    -5.061000000
O    -3.530000000    -4.554000000     3.431000000
H    -2.956000000    -4.285000000     2.713000000
H    -3.706000000    -3.745000000     3.912000000
O     0.889000000    -4.944000000    -0.098000000
H     0.647000000    -4.649000000    -0.976000000
H     0.380000000    -4.386000000     0.491000000
O     4.385000000     1.754000000     0.295000000
H     4.681000000     1.077000000    -0.313000000
H     4.100000000     1.272000000     1.071000000
O     5.017000000    -1.901000000     2.383000000
H     4.497000000    -1.313000000     2.931000000
H     4.379000000    -2.511000000     2.014000000
O    -4.250000000    -4.697000000     6.056000000
H    -5.111000000    -4.505000000     5.686000000
H    -3.659000000    -4.692000000     5.303000000
O    -2.305000000     3.045000000     2.666000000
H    -2.799000000     2.986000000     1.848000000
H    -2.393000000     3.960000000     2.932000000
O     4.448000000     0.545000000    -5.008000000
H     5.117000000     1.191000000    -4.779000000
H     4.681000000     0.262000000    -5.892000000
O     0.918000000    -0.811000000    -6.581000000
H     1.009000000    -1.243000000    -7.430000000
H     0.297000000    -1.358000000    -6.100000000
O    -0.531000000    -5.839000000     3.201000000
H    -0.274000000    -6.602000000     2.683000000
H    -0.529000000    -5.114000000     2.576000000
O     3.103000000    -3.928000000     1.465000000
H     2.351000000    -4.317000000     1.018000000
H     3.572000000    -4.674000000     1.838000000
O     0.417000000     1.935000000    -6.731000000
H     0.790000000     1.108000000    -6.428000000
H     0.159000000     1.764000000    -7.637000000
O     1.561000000     4.208000000    -5.285000000
H     0.637000000     4.458000000    -5.285000000
H     1.574000000     3.343000000    -5.694000000
O    -1.760000000     0.337000000     6.172000000
H    -1.471000000    -0.554000000     5.978000000
H    -1.149000000     0.897000000     5.692000000
O    -4.737000000     1.335000000     1.152000000
H    -4.439000000     0.438000000     0.997000000
H    -4.610000000     1.777000000     0.313000000
O    -2.659000000    -7.492000000     3.831000000
H    -1.819000000    -7.037000000     3.769000000
H    -3.236000000    -7.010000000     3.238000000
O     1.560000000     0.833000000     3.379000000
H     2.015000000    -0.007000000     3.430000000
H     1.476000000     1.004000000     2.441000000
O     3.722000000    -4.088000000    -1.409000000
H     2.860000000    -4.103000000    -1.824000000
H     3.539000000    -3.936000000    -0.482000000
O     5.306000000    -2.750000000    -3.330000000
H     4.797000000    -2.896000000    -2.533000000
H     6.110000000    -2.329000000    -3.028000000
O     1.429000000    -3.693000000    -2.575000000
H     1.469000000    -3.056000000    -3.289000000
H     0.807000000    -4.354000000    -2.879000000
O    -0.686000000    -2.301000000    -5.169000000
H    -0.831000000    -1.939000000    -4.295000000
H    -1.566000000    -2.457000000    -5.512000000
O    -4.004000000    -1.240000000     1.454000000
H    -3.422000000    -1.632000000     2.106000000
H    -4.854000000    -1.192000000     1.891000000
O    -4.887000000     3.664000000    -3.583000000
H    -4.041000000     4.010000000    -3.297000000
H    -5.472000000     3.819000000    -2.841000000
O    -1.112000000    -1.286000000    -2.649000000
H    -1.790000000    -1.609000000    -2.055000000
H    -0.637000000    -0.631000000    -2.137000000
O     0.116000000    -4.627000000     5.549000000
H     0.126000000    -5.395000000     6.120000000
H    -0.037000000    -4.982000000     4.673000000
O     2.418000000    -1.761000000     3.593000000
H     1.668000000    -2.313000000     3.371000000
H     2.546000000    -1.897000000     4.532000000
O    -0.954000000    -1.944000000     5.186000000
H    -1.418000000    -2.085000000     4.360000000
H    -0.586000000    -2.801000000     5.403000000
O    -2.372000000     2.036000000    -6.281000000
H    -1.420000000     2.129000000    -6.319000000
H    -2.552000000     1.780000000    -5.377000000
O     3.456000000     3.416000000    -2.690000000
H     2.728000000     2.847000000    -2.939000000
H     3.061000000     4.072000000    -2.115000000
O    -4.743000000     0.986000000     3.993000000
H    -3.966000000     1.073000000     4.545000000
H    -4.472000000     1.333000000     3.143000000
O    -0.397000000     2.399000000     4.501000000
H     0.084000000     1.721000000     4.026000000
H    -0.934000000     2.824000000     3.832000000
O    -3.343000000    -2.172000000    -1.171000000
H    -2.931000000    -3.000000000    -0.924000000
H    -3.745000000    -1.854000000    -0.362000000
O     2.524000000     6.342000000    -3.532000000
H     2.487000000     6.056000000    -2.619000000
H     2.135000000     5.620000000    -4.025000000
O    -1.170000000    -6.897000000    -1.333000000
H    -1.700000000    -7.460000000    -1.897000000
H    -0.409000000    -6.671000000    -1.867000000
O     1.320000000     4.632000000     3.656000000
H     1.092000000     4.191000000     4.474000000
H     1.751000000     5.441000000     3.932000000
O     2.612000000     5.660000000    -0.914000000
H     3.243000000     6.235000000    -0.481000000
H     1.978000000     5.441000000    -0.230000000
O    -3.756000000     0.852000000    -1.496000000
H    -3.305000000     1.686000000    -1.363000000
H    -3.093000000     0.188000000    -1.305000000
O     2.500000000    -6.764000000     1.253000000
H     1.855000000    -6.309000000     0.712000000
H     2.369000000    -7.691000000     1.054000000
O    -1.676000000     5.748000000     3.267000000
H    -1.413000000     6.079000000     4.126000000
H    -0.857000000     5.684000000     2.774000000
O     0.772000000     5.348000000     1.203000000
H     0.903000000     6.225000000     1.564000000
H     0.810000000     4.768000000     1.963000000
O     6.003000000     2.722000000    -4.051000000
H     5.151000000     3.060000000    -3.775000000
H     6.574000000     2.866000000    -3.295000000
O     5.232000000     4.151000000     1.971000000
H     5.962000000     3.641000000     2.323000000
H     5.032000000     3.735000000     1.132000000
O    -0.961000000     5.346000000    -1.341000000
H    -0.646000000     5.426000000    -0.440000000
H    -0.403000000     5.939000000    -1.844000000
O    -2.162000000    -4.547000000    -0.519000000
H    -1.719000000    -5.382000000    -0.666000000
H    -1.611000000    -4.092000000     0.118000000
O    -3.346000000     3.710000000    -0.469000000
H    -2.451000000     3.972000000    -0.687000000
H    -3.735000000     4.492000000    -0.077000000
