161
-3040.81342
C     1.163000000    -0.845000000    -0.021000000
H     2.152000000    -1.295000000     0.013000000
C     1.109000000     0.453000000    -0.540000000
H     1.925000000     0.838000000    -1.146000000
C    -0.097000000     1.177000000    -0.425000000
C    -0.061000000     2.561000000    -0.909000000
H    -1.059000000     2.825000000    -1.263000000
H     0.159000000     3.237000000    -0.080000000
H     0.684000000     2.733000000    -1.689000000
C    -1.186000000     0.552000000     0.177000000
H    -2.134000000     1.078000000     0.260000000
C    -1.165000000    -0.791000000     0.497000000
H    -2.027000000    -1.224000000     0.998000000
C     0.037000000    -1.506000000     0.542000000
C     0.167000000    -2.900000000     1.067000000
O    -0.871000000    -3.397000000     1.475000000
O     1.199000000    -3.501000000     1.044000000
O     0.009000000     2.161000000    -4.529000000
H     0.240000000     1.240000000    -4.406000000
H     0.468000000     2.618000000    -3.825000000
O    -3.996000000    -0.284000000     5.456000000
H    -3.288000000    -0.364000000     4.818000000
H    -3.603000000     0.185000000     6.192000000
O     5.235000000    -0.852000000    -3.515000000
H     5.199000000    -0.288000000    -2.743000000
H     5.305000000    -1.738000000    -3.162000000
O     1.437000000    -6.318000000    -1.895000000
H     0.542000000    -5.987000000    -1.821000000
H     1.551000000    -6.494000000    -2.829000000
O     0.481000000    -3.092000000    -2.545000000
H    -0.455000000    -2.896000000    -2.580000000
H     0.792000000    -2.636000000    -1.763000000
O     2.667000000     2.240000000     2.785000000
H     2.671000000     1.288000000     2.686000000
H     2.887000000     2.386000000     3.705000000
O     4.174000000     2.726000000     0.271000000
H     3.559000000     2.492000000     0.966000000
H     4.650000000     3.482000000     0.617000000
O     0.639000000     5.157000000    -6.238000000
H     1.347000000     5.686000000    -6.606000000
H     0.745000000     5.242000000    -5.290000000
O    -6.940000000    -0.228000000     0.802000000
H    -6.562000000     0.196000000     0.032000000
H    -6.579000000    -1.114000000     0.790000000
O    -0.226000000     2.645000000     4.078000000
H    -1.177000000     2.601000000     3.976000000
H    -0.011000000     3.565000000     3.923000000
O     5.001000000    -1.186000000     1.272000000
H     5.919000000    -1.273000000     1.527000000
H     4.817000000    -1.978000000     0.768000000
O    -3.062000000     0.271000000    -3.000000000
H    -2.932000000     1.189000000    -3.236000000
H    -2.286000000    -0.176000000    -3.339000000
O     3.816000000    -3.162000000     0.119000000
H     3.914000000    -3.150000000     1.071000000
H     2.891000000    -3.362000000    -0.023000000
O    -0.259000000    -3.896000000     4.076000000
H    -1.142000000    -4.191000000     4.296000000
H    -0.275000000    -3.780000000     3.125000000
O    -0.895000000     5.474000000    -1.550000000
H    -1.362000000     5.336000000    -0.726000000
H    -1.527000000     5.924000000    -2.111000000
O    -5.784000000    -2.628000000     1.202000000
H    -6.379000000    -3.293000000     1.547000000
H    -4.933000000    -2.847000000     1.581000000
O    -2.863000000    -4.654000000     4.473000000
H    -2.849000000    -4.878000000     5.404000000
H    -3.132000000    -5.463000000     4.037000000
O     3.310000000    -0.391000000     3.150000000
H     3.209000000    -1.323000000     3.341000000
H     4.027000000    -0.352000000     2.516000000
O     5.695000000    -3.155000000    -2.118000000
H     6.549000000    -3.581000000    -2.182000000
H     5.557000000    -3.035000000    -1.178000000
O     2.490000000    -5.490000000     4.810000000
H     1.850000000    -4.944000000     5.266000000
H     3.077000000    -5.799000000     5.500000000
O     3.697000000    -4.740000000    -2.859000000
H     4.166000000    -3.944000000    -2.607000000
H     3.178000000    -4.967000000    -2.088000000
O    -3.206000000     2.997000000    -2.768000000
H    -3.145000000     3.910000000    -3.050000000
H    -3.200000000     3.041000000    -1.812000000
O    -2.117000000     3.624000000    -5.459000000
H    -1.721000000     4.431000000    -5.789000000
H    -1.389000000     3.145000000    -5.063000000
O     0.940000000     7.516000000     2.868000000
H     0.196000000     8.094000000     3.041000000
H     0.568000000     6.634000000     2.888000000
O     4.813000000    -5.762000000     3.410000000
H     3.865000000    -5.646000000     3.466000000
H     5.026000000    -5.562000000     2.499000000
O     1.697000000     4.701000000     1.925000000
H     2.484000000     5.218000000     1.753000000
H     2.028000000     3.855000000     2.228000000
O     2.912000000    -3.510000000     3.033000000
H     2.758000000    -4.209000000     3.669000000
H     2.209000000    -3.610000000     2.391000000
O    -1.870000000    -1.184000000     4.035000000
H    -2.097000000    -1.531000000     3.172000000
H    -0.976000000    -0.857000000     3.933000000
O     2.935000000     0.708000000    -3.253000000
H     3.793000000     0.288000000    -3.196000000
H     2.396000000     0.237000000    -2.617000000
O     1.119000000     5.580000000    -3.530000000
H     1.950000000     5.117000000    -3.426000000
H     0.557000000     5.222000000    -2.843000000
O    -5.789000000    -2.641000000    -1.644000000
H    -5.602000000    -2.609000000    -0.706000000
H    -5.072000000    -3.156000000    -2.014000000
O     5.384000000     0.276000000    -1.208000000
H     5.396000000     1.170000000    -0.866000000
H     5.148000000    -0.266000000    -0.455000000
O    -2.214000000    -8.294000000     0.411000000
H    -1.341000000    -8.592000000     0.156000000
H    -2.168000000    -7.340000000     0.355000000
O     1.565000000    -6.182000000     1.194000000
H     1.430000000    -5.248000000     1.352000000
H     2.043000000    -6.218000000     0.365000000
O     3.510000000    -7.359000000    -0.683000000
H     3.366000000    -8.282000000    -0.476000000
H     2.751000000    -7.111000000    -1.211000000
O     2.974000000     4.737000000    -1.473000000
H     2.393000000     5.268000000    -0.929000000
H     3.106000000     3.934000000    -0.970000000
O    -2.874000000     2.016000000     3.742000000
H    -3.398000000     2.616000000     3.212000000
H    -3.496000000     1.353000000     4.041000000
O     3.940000000     2.250000000    -5.321000000
H     3.644000000     1.526000000    -4.770000000
H     3.200000000     2.428000000    -5.901000000
O     0.622000000    -0.305000000     3.792000000
H     0.292000000     0.570000000     3.585000000
H     1.514000000    -0.313000000     3.446000000
O     1.386000000     6.710000000    -0.565000000
H     0.625000000     6.467000000    -1.093000000
H     1.024000000     6.908000000     0.299000000
O    -5.430000000     1.366000000    -1.092000000
H    -4.792000000     1.906000000    -0.626000000
H    -4.903000000     0.705000000    -1.541000000
O    -3.672000000     3.360000000    -0.249000000
H    -2.880000000     3.510000000     0.266000000
H    -4.212000000     4.134000000    -0.089000000
O    -3.433000000    -3.312000000     2.004000000
H    -2.495000000    -3.269000000     1.817000000
H    -3.487000000    -3.731000000     2.863000000
O    -1.422000000     4.701000000     1.254000000
H    -1.634000000     4.897000000     2.166000000
H    -0.487000000     4.497000000     1.264000000
O    -2.188000000    -5.465000000     0.107000000
H    -1.582000000    -4.997000000     0.682000000
H    -2.393000000    -4.838000000    -0.586000000
O    -3.705000000    -7.088000000     3.071000000
H    -2.866000000    -7.189000000     2.621000000
H    -4.095000000    -7.962000000     3.047000000
O    -2.237000000    -3.198000000    -1.711000000
H    -2.214000000    -3.829000000    -2.431000000
H    -2.611000000    -2.407000000    -2.097000000
O    -0.304000000    -7.040000000     3.044000000
H     0.328000000    -6.989000000     2.327000000
H    -0.283000000    -6.170000000     3.443000000
