161
-3072.30670
C     0.817000000    -0.168000000     1.219000000
H     1.510000000    -0.121000000     2.055000000
C     0.482000000     1.012000000     0.605000000
H     0.848000000     1.965000000     0.977000000
C    -0.279000000     1.043000000    -0.565000000
C    -0.488000000     2.345000000    -1.298000000
H     0.448000000     2.888000000    -1.442000000
H    -0.920000000     2.313000000    -2.301000000
H    -1.077000000     3.103000000    -0.778000000
C    -0.763000000    -0.153000000    -1.039000000
H    -1.424000000    -0.137000000    -1.903000000
C    -0.396000000    -1.350000000    -0.455000000
H    -0.710000000    -2.298000000    -0.883000000
C     0.294000000    -1.425000000     0.704000000
C     0.538000000    -2.690000000     1.446000000
O     0.189000000    -3.783000000     1.036000000
O     0.939000000    -2.548000000     2.616000000
O     2.958000000    -1.125000000     4.092000000
H     3.447000000    -1.054000000     3.273000000
H     2.200000000    -1.667000000     3.873000000
O    -0.028000000    -6.236000000     1.365000000
H     0.039000000    -5.293000000     1.517000000
H     0.295000000    -6.632000000     2.175000000
O     4.595000000    -3.758000000     4.395000000
H     4.378000000    -4.634000000     4.713000000
H     4.008000000    -3.176000000     4.877000000
O    -2.260000000     5.621000000    -1.078000000
H    -3.083000000     5.666000000    -0.592000000
H    -1.614000000     5.340000000    -0.430000000
O     2.171000000     4.910000000    -0.803000000
H     2.567000000     4.042000000    -0.887000000
H     2.902000000     5.487000000    -0.583000000
O     1.417000000    -5.676000000    -0.879000000
H     1.106000000    -5.792000000     0.019000000
H     0.683000000    -5.263000000    -1.335000000
O     5.703000000    -3.007000000     2.036000000
H     5.982000000    -3.870000000     1.732000000
H     5.423000000    -3.150000000     2.940000000
O     3.949000000     4.703000000     2.793000000
H     3.513000000     5.544000000     2.653000000
H     3.305000000     4.050000000     2.519000000
O     5.422000000     0.556000000     3.975000000
H     4.902000000     0.023000000     4.576000000
H     5.435000000     0.054000000     3.160000000
O    -1.468000000     3.049000000     2.251000000
H    -0.903000000     3.494000000     1.619000000
H    -2.029000000     3.742000000     2.600000000
O    -0.502000000     1.037000000     3.623000000
H    -0.743000000     1.812000000     3.116000000
H    -0.532000000     0.318000000     2.991000000
O    -1.122000000     1.992000000    -5.302000000
H    -0.981000000     2.673000000    -5.959000000
H    -1.053000000     1.171000000    -5.789000000
O     0.366000000     5.972000000     3.458000000
H     0.684000000     6.604000000     4.101000000
H     0.582000000     5.118000000     3.833000000
O     1.231000000    -7.598000000     3.635000000
H     1.845000000    -6.866000000     3.685000000
H     1.091000000    -7.857000000     4.546000000
O    -2.465000000    -4.549000000     0.195000000
H    -1.541000000    -4.438000000     0.419000000
H    -2.789000000    -5.191000000     0.826000000
O     2.708000000    -4.336000000    -2.941000000
H     2.055000000    -4.758000000    -2.383000000
H     2.607000000    -4.763000000    -3.792000000
O    -5.741000000     2.325000000    -2.299000000
H    -4.911000000     2.154000000    -2.744000000
H    -5.717000000     3.261000000    -2.099000000
O     4.294000000    -0.678000000     1.649000000
H     4.910000000    -1.410000000     1.686000000
H     3.935000000    -0.713000000     0.762000000
O    -2.397000000    -4.736000000     4.579000000
H    -1.579000000    -4.514000000     4.135000000
H    -2.944000000    -3.957000000     4.479000000
O     0.219000000    -3.036000000     5.067000000
H     0.921000000    -3.648000000     5.288000000
H     0.360000000    -2.835000000     4.142000000
O    -0.043000000    -2.183000000    -4.973000000
H    -0.644000000    -1.987000000    -4.253000000
H    -0.381000000    -1.676000000    -5.711000000
O     0.412000000     3.723000000     4.859000000
H     0.457000000     2.895000000     4.382000000
H    -0.171000000     3.544000000     5.597000000
O    -2.591000000    -2.424000000     2.675000000
H    -2.900000000    -1.719000000     2.106000000
H    -2.203000000    -3.062000000     2.076000000
O     2.798000000    -0.957000000    -3.747000000
H     2.256000000    -0.168000000    -3.743000000
H     2.175000000    -1.675000000    -3.631000000
O    -3.946000000    -0.413000000    -3.136000000
H    -3.971000000     0.350000000    -3.712000000
H    -4.816000000    -0.442000000    -2.738000000
O    -4.258000000     4.511000000     0.494000000
H    -4.539000000     4.784000000     1.367000000
H    -4.287000000     3.554000000     0.521000000
O     1.277000000    -4.769000000    -5.213000000
H     0.961000000    -4.807000000    -6.115000000
H     1.132000000    -3.861000000    -4.946000000
O    -3.522000000    -6.039000000     2.110000000
H    -3.540000000    -5.824000000     3.042000000
H    -4.354000000    -6.484000000     1.950000000
O     3.206000000     2.127000000    -1.689000000
H     2.699000000     1.772000000    -2.420000000
H     3.797000000     2.762000000    -2.094000000
O     3.415000000     2.341000000     0.967000000
H     3.599000000     1.609000000     1.556000000
H     3.511000000     1.972000000     0.089000000
O    -3.215000000     2.433000000    -3.615000000
H    -3.111000000     3.292000000    -3.206000000
H    -2.382000000     2.276000000    -4.058000000
O     1.476000000     0.910000000     5.583000000
H     0.616000000     0.859000000     5.167000000
H     2.061000000     0.449000000     4.982000000
O     1.620000000     1.638000000    -4.032000000
H     1.738000000     2.586000000    -4.079000000
H     0.979000000     1.442000000    -4.716000000
O    -1.741000000    -2.578000000     6.960000000
H    -1.038000000    -2.757000000     6.335000000
H    -2.028000000    -3.443000000     7.252000000
O    -5.933000000     4.917000000    -1.737000000
H    -5.364000000     4.958000000    -0.969000000
H    -6.251000000     5.813000000    -1.848000000
O     3.569000000    -0.572000000    -0.729000000
H     3.131000000    -0.947000000    -1.494000000
H     3.724000000     0.342000000    -0.966000000
O    -2.444000000    -2.534000000    -3.516000000
H    -3.030000000    -3.221000000    -3.198000000
H    -2.901000000    -1.717000000    -3.313000000
O    -4.749000000     1.743000000     0.469000000
H    -5.302000000     1.708000000    -0.311000000
H    -4.303000000     0.896000000     0.484000000
O    -0.889000000     5.126000000    -3.554000000
H    -1.624000000     5.212000000    -4.161000000
H    -1.291000000     5.146000000    -2.686000000
O    -1.045000000    -4.975000000    -2.377000000
H    -1.088000000    -4.330000000    -3.083000000
H    -1.632000000    -4.632000000    -1.703000000
O    -0.014000000     4.973000000     0.722000000
H     0.393000000     5.558000000     1.362000000
H     0.642000000     4.881000000     0.031000000
O     4.237000000    -5.685000000    -0.337000000
H     3.299000000    -5.709000000    -0.529000000
H     4.658000000    -5.860000000    -1.179000000
O    -4.223000000    -4.301000000    -2.141000000
H    -5.064000000    -4.734000000    -1.992000000
H    -3.918000000    -4.063000000    -1.266000000
O     1.820000000     4.477000000    -4.065000000
H     1.934000000     4.879000000    -3.204000000
H     0.938000000     4.734000000    -4.335000000
O    -3.422000000    -0.585000000     0.359000000
H    -2.632000000    -0.248000000    -0.063000000
H    -3.719000000    -1.289000000    -0.217000000
O     2.611000000    -4.054000000     6.635000000
H     2.802000000    -3.325000000     7.225000000
H     3.307000000    -4.689000000     6.806000000
O    -0.217000000    -8.684000000     0.391000000
H    -0.195000000    -7.778000000     0.696000000
H     0.686000000    -8.874000000     0.136000000
O     2.113000000    -4.997000000     3.564000000
H     1.490000000    -4.452000000     3.084000000
H     2.951000000    -4.544000000     3.469000000
