161
-3074.39246
C     1.241000000    -0.487000000     0.708000000
H     2.250000000    -0.685000000     1.061000000
C     0.718000000     0.845000000     0.720000000
H     1.220000000     1.672000000     1.216000000
C    -0.518000000     1.121000000     0.111000000
C    -0.924000000     2.523000000     0.164000000
H    -1.970000000     2.606000000    -0.138000000
H    -0.807000000     2.900000000     1.182000000
H    -0.375000000     3.141000000    -0.550000000
C    -1.226000000     0.096000000    -0.536000000
H    -2.115000000     0.420000000    -1.071000000
C    -0.679000000    -1.177000000    -0.616000000
H    -1.130000000    -1.980000000    -1.193000000
C     0.545000000    -1.440000000    -0.036000000
C     1.122000000    -2.779000000    -0.321000000
O     0.404000000    -3.650000000    -0.773000000
O     2.250000000    -3.126000000     0.076000000
O    -5.828000000     1.160000000    -1.618000000
H    -5.490000000     1.977000000    -1.986000000
H    -6.779000000     1.264000000    -1.638000000
O    -1.135000000    -1.975000000     2.819000000
H    -1.142000000    -2.931000000     2.775000000
H    -0.791000000    -1.698000000     1.970000000
O    -1.181000000    -7.153000000    -2.929000000
H    -1.060000000    -7.916000000    -2.364000000
H    -0.600000000    -7.311000000    -3.673000000
O    -4.893000000     1.436000000    -4.538000000
H    -4.592000000     0.555000000    -4.315000000
H    -5.749000000     1.300000000    -4.946000000
O     3.574000000    -2.769000000     2.204000000
H     3.046000000    -2.977000000     1.432000000
H     3.887000000    -3.618000000     2.516000000
O    -2.877000000     3.701000000     5.845000000
H    -1.983000000     3.431000000     5.635000000
H    -3.215000000     4.066000000     5.027000000
O     6.898000000    -5.610000000    -0.255000000
H     6.404000000    -6.357000000    -0.592000000
H     6.483000000    -4.847000000    -0.656000000
O    -3.689000000    -1.655000000     0.584000000
H    -2.982000000    -2.292000000     0.685000000
H    -4.136000000    -1.919000000    -0.220000000
O     4.323000000    -5.352000000     2.463000000
H     5.238000000    -5.613000000     2.565000000
H     4.215000000    -5.223000000     1.520000000
O    -3.159000000     3.322000000     2.467000000
H    -3.009000000     4.027000000     1.837000000
H    -3.500000000     2.599000000     1.941000000
O     3.786000000    -3.431000000    -3.052000000
H     3.324000000    -2.608000000    -2.895000000
H     3.092000000    -4.087000000    -3.122000000
O    -2.201000000     1.173000000     4.097000000
H    -1.370000000     1.633000000     3.980000000
H    -2.756000000     1.497000000     3.387000000
O     4.660000000     3.714000000     2.907000000
H     4.319000000     4.487000000     3.357000000
H     5.610000000     3.823000000     2.928000000
O     0.280000000    -8.304000000     0.654000000
H     0.667000000    -7.447000000     0.830000000
H     0.799000000    -8.913000000     1.180000000
O    -3.894000000    -5.458000000     1.464000000
H    -3.285000000    -6.058000000     1.034000000
H    -3.929000000    -4.696000000     0.886000000
O    -1.214000000    -4.481000000    -2.817000000
H    -0.504000000    -4.040000000    -2.350000000
H    -1.064000000    -5.413000000    -2.656000000
O     1.615000000    -5.013000000    -2.650000000
H     1.182000000    -4.608000000    -1.898000000
H     1.702000000    -5.935000000    -2.407000000
O    -1.599000000    -4.568000000     2.808000000
H    -1.760000000    -4.320000000     1.897000000
H    -1.446000000    -5.513000000     2.775000000
O     5.141000000    -1.301000000     0.574000000
H     4.693000000    -1.712000000     1.313000000
H     5.154000000    -0.369000000     0.789000000
O     1.492000000    -5.391000000    -5.192000000
H     1.511000000    -5.145000000    -4.267000000
H     1.285000000    -6.326000000    -5.187000000
O    -0.216000000     3.093000000     4.109000000
H     0.707000000     2.883000000     3.968000000
H    -0.440000000     3.684000000     3.390000000
O     3.910000000    -0.190000000     3.700000000
H     4.819000000    -0.393000000     3.920000000
H     3.573000000    -0.994000000     3.305000000
O    -5.127000000     5.902000000    -2.035000000
H    -5.627000000     5.101000000    -2.192000000
H    -4.266000000     5.596000000    -1.752000000
O     0.537000000    -0.859000000    -5.004000000
H     0.917000000    -0.077000000    -5.405000000
H    -0.409000000    -0.727000000    -5.071000000
O     2.561000000    -1.029000000    -3.064000000
H     2.514000000    -0.187000000    -2.612000000
H     1.866000000    -0.989000000    -3.721000000
O     2.193000000     2.032000000     4.106000000
H     1.640000000     1.253000000     4.168000000
H     3.088000000     1.695000000     4.157000000
O    -2.013000000    -3.982000000     0.186000000
H    -2.474000000    -4.260000000    -0.606000000
H    -1.114000000    -3.824000000    -0.103000000
O     0.137000000     5.775000000     1.875000000
H     0.901000000     5.300000000     1.550000000
H     0.502000000     6.490000000     2.397000000
O    -1.919000000     1.355000000    -4.179000000
H    -2.001000000     2.162000000    -3.671000000
H    -2.708000000     1.331000000    -4.720000000
O    -5.391000000    -2.234000000    -1.709000000
H    -6.273000000    -2.031000000    -1.396000000
H    -5.124000000    -1.452000000    -2.193000000
O     2.022000000    -2.542000000     4.605000000
H     2.295000000    -2.523000000     3.688000000
H     2.104000000    -3.460000000     4.861000000
O    -2.426000000     5.492000000     1.158000000
H    -3.051000000     6.191000000     1.349000000
H    -1.569000000     5.887000000     1.319000000
O     3.091000000     5.048000000    -1.937000000
H     3.021000000     5.094000000    -2.890000000
H     3.571000000     4.237000000    -1.771000000
O    -0.119000000     6.169000000    -1.336000000
H     0.336000000     6.300000000    -2.167000000
H     0.519000000     5.718000000    -0.782000000
O     4.604000000     1.400000000     1.606000000
H     4.561000000     2.228000000     2.084000000
H     4.587000000     0.728000000     2.288000000
O     0.541000000    -0.064000000     4.085000000
H     0.936000000    -0.916000000     4.269000000
H    -0.391000000    -0.252000000     3.970000000
O    -3.500000000    -1.710000000     3.970000000
H    -3.175000000    -1.108000000     4.640000000
H    -2.730000000    -1.917000000     3.440000000
O    -3.462000000    -0.945000000    -3.625000000
H    -2.728000000    -0.512000000    -3.190000000
H    -3.153000000    -1.836000000    -3.788000000
O    -3.946000000    -4.601000000    -1.695000000
H    -3.822000000    -4.926000000    -2.587000000
H    -4.842000000    -4.263000000    -1.686000000
O     4.522000000     2.744000000    -1.338000000
H     3.945000000     2.078000000    -1.711000000
H     4.759000000     2.402000000    -0.476000000
O    -2.554000000     5.214000000    -1.517000000
H    -1.678000000     5.592000000    -1.601000000
H    -2.649000000     5.036000000    -0.582000000
O    -2.396000000    -3.396000000    -4.865000000
H    -2.077000000    -3.851000000    -5.644000000
H    -1.902000000    -3.784000000    -4.143000000
O     2.384000000     4.677000000     0.690000000
H     2.688000000     4.992000000    -0.161000000
H     3.121000000     4.174000000     1.037000000
O     3.928000000    -5.250000000    -0.093000000
H     3.565000000    -4.373000000    -0.216000000
H     3.441000000    -5.799000000    -0.707000000
O     5.825000000    -3.353000000    -1.236000000
H     5.117000000    -3.413000000    -1.877000000
H     5.489000000    -2.760000000    -0.563000000
O     2.005000000     1.667000000    -2.450000000
H     1.848000000     2.297000000    -3.153000000
H     1.325000000     1.856000000    -1.803000000
O    -4.274000000     0.979000000     0.796000000
H    -4.028000000     0.088000000     0.551000000
H    -4.813000000     1.288000000     0.068000000
O     1.182000000    -5.583000000     1.020000000
H     1.075000000    -4.776000000     0.517000000
H     2.088000000    -5.555000000     1.329000000
