161
-3068.93773
C     0.605000000    -0.851000000    -1.004000000
H     1.033000000    -1.416000000    -1.828000000
C     0.728000000     0.506000000    -1.022000000
H     1.175000000     1.072000000    -1.836000000
C     0.064000000     1.207000000     0.032000000
C     0.173000000     2.702000000    -0.058000000
H    -0.809000000     3.114000000     0.183000000
H     0.903000000     3.145000000     0.622000000
H     0.285000000     2.969000000    -1.111000000
C    -0.653000000     0.535000000     1.008000000
H    -1.075000000     1.178000000     1.775000000
C    -0.772000000    -0.872000000     1.002000000
H    -1.303000000    -1.346000000     1.824000000
C    -0.113000000    -1.564000000    -0.020000000
C    -0.149000000    -3.056000000     0.037000000
O    -0.923000000    -3.680000000     0.769000000
O     0.832000000    -3.650000000    -0.381000000
O     1.831000000    -5.688000000     1.592000000
H     1.487000000    -4.964000000     1.069000000
H     2.639000000    -5.943000000     1.146000000
O    -3.377000000    -2.805000000     1.186000000
H    -3.693000000    -3.558000000     1.686000000
H    -2.493000000    -3.053000000     0.913000000
O     1.122000000     3.046000000     4.072000000
H     1.053000000     3.781000000     3.462000000
H     1.843000000     2.518000000     3.730000000
O    -2.781000000    -0.979000000    -4.354000000
H    -2.003000000    -0.549000000    -4.710000000
H    -2.435000000    -1.675000000    -3.795000000
O     2.425000000     7.289000000     1.185000000
H     3.255000000     7.746000000     1.050000000
H     1.765000000     7.983000000     1.177000000
O    -0.743000000    -2.834000000    -5.776000000
H    -0.840000000    -2.600000000    -6.699000000
H    -1.070000000    -3.732000000    -5.721000000
O    -4.871000000    -0.816000000     0.183000000
H    -4.375000000    -1.565000000     0.514000000
H    -4.451000000    -0.055000000     0.583000000
O    -1.774000000     5.788000000     2.373000000
H    -1.939000000     5.177000000     3.091000000
H    -0.883000000     6.104000000     2.527000000
O    -3.117000000     2.340000000     5.929000000
H    -3.332000000     1.426000000     6.116000000
H    -2.620000000     2.630000000     6.694000000
O    -3.788000000     0.959000000     2.130000000
H    -3.250000000     0.303000000     2.572000000
H    -4.488000000     1.154000000     2.753000000
O     1.917000000    -1.170000000    -4.613000000
H     2.016000000    -1.755000000    -5.364000000
H     1.003000000    -0.886000000    -4.649000000
O    -2.286000000    -5.670000000    -0.509000000
H    -3.007000000    -5.428000000     0.071000000
H    -1.543000000    -5.155000000    -0.194000000
O     1.756000000    -4.342000000    -5.508000000
H     1.714000000    -4.329000000    -4.552000000
H     1.125000000    -3.677000000    -5.785000000
O    -3.116000000    -0.660000000     4.153000000
H    -3.485000000    -1.530000000     4.003000000
H    -2.605000000    -0.751000000     4.957000000
O     3.192000000     2.614000000    -2.102000000
H     2.484000000     2.838000000    -2.707000000
H     3.286000000     3.388000000    -1.546000000
O    -1.572000000     3.860000000    -3.870000000
H    -2.022000000     4.697000000    -3.984000000
H    -2.095000000     3.394000000    -3.217000000
O     3.516000000    -1.959000000    -2.594000000
H     4.204000000    -1.300000000    -2.685000000
H     2.940000000    -1.809000000    -3.344000000
O    -4.274000000    -5.736000000     1.327000000
H    -4.250000000    -6.689000000     1.415000000
H    -5.206000000    -5.518000000     1.334000000
O    -1.571000000     4.415000000     4.634000000
H    -0.693000000     4.326000000     5.005000000
H    -2.063000000     3.681000000     5.001000000
O     3.422000000     0.806000000     3.886000000
H     3.227000000     0.172000000     3.196000000
H     3.254000000     0.333000000     4.701000000
O     1.145000000    -6.870000000    -2.844000000
H     1.094000000    -5.919000000    -2.938000000
H     2.074000000    -7.071000000    -2.954000000
O    -0.163000000    -4.316000000     3.105000000
H     0.427000000    -4.992000000     2.772000000
H    -0.602000000    -3.977000000     2.326000000
O     1.128000000     3.122000000    -4.097000000
H     0.212000000     3.330000000    -3.911000000
H     1.403000000     3.790000000    -4.725000000
O    -2.604000000    -2.922000000    -2.442000000
H    -2.777000000    -3.678000000    -3.003000000
H    -2.576000000    -3.282000000    -1.556000000
O     4.634000000     1.459000000     0.253000000
H     4.015000000     1.708000000    -0.433000000
H     4.208000000     0.734000000     0.710000000
O    -3.577000000    -5.452000000    -3.097000000
H    -4.468000000    -5.200000000    -2.857000000
H    -3.244000000    -5.916000000    -2.329000000
O     1.474000000     5.139000000     2.403000000
H     1.943000000     4.479000000     1.893000000
H     1.848000000     5.973000000     2.118000000
O     3.744000000     4.970000000    -0.814000000
H     3.194000000     5.731000000    -0.999000000
H     4.631000000     5.325000000    -0.754000000
O    -2.318000000    -4.108000000     4.740000000
H    -2.967000000    -4.568000000     4.207000000
H    -1.505000000    -4.175000000     4.239000000
O    -0.584000000     0.812000000     4.446000000
H    -1.507000000     1.057000000     4.521000000
H    -0.131000000     1.637000000     4.271000000
O    -2.384000000    -0.020000000    -1.418000000
H    -2.655000000    -0.890000000    -1.711000000
H    -1.590000000    -0.176000000    -0.907000000
O     5.313000000     3.170000000    -3.790000000
H     4.574000000     3.126000000    -3.183000000
H     5.079000000     2.568000000    -4.497000000
O    -1.157000000    -7.991000000    -1.654000000
H    -1.477000000    -7.172000000    -1.275000000
H    -0.669000000    -7.720000000    -2.432000000
O    -2.961000000     2.571000000    -2.026000000
H    -2.530000000     1.790000000    -1.679000000
H    -3.494000000     2.893000000    -1.300000000
O    -2.052000000     6.438000000    -2.510000000
H    -2.461000000     6.124000000    -1.704000000
H    -1.192000000     6.756000000    -2.235000000
O    -0.745000000     1.061000000    -4.097000000
H     0.086000000     1.535000000    -4.136000000
H    -1.157000000     1.366000000    -3.288000000
O     5.619000000    -0.306000000    -3.200000000
H     6.235000000    -0.217000000    -3.927000000
H     5.727000000     0.500000000    -2.694000000
O     1.058000000    -1.526000000     3.799000000
H     0.524000000    -0.735000000     3.722000000
H     0.433000000    -2.246000000     3.709000000
O     2.929000000     6.072000000     4.535000000
H     3.213000000     6.918000000     4.189000000
H     2.460000000     5.662000000     3.809000000
O    -2.960000000     5.533000000    -0.083000000
H    -2.481000000     5.669000000     0.735000000
H    -3.505000000     4.764000000     0.085000000
O     1.791000000    -4.298000000    -2.757000000
H     2.741000000    -4.180000000    -2.741000000
H     1.494000000    -3.963000000    -1.911000000
O     2.893000000    -0.947000000     1.864000000
H     3.115000000    -1.611000000     1.212000000
H     2.082000000    -1.264000000     2.262000000
O     3.504000000    -3.438000000     0.072000000
H     2.585000000    -3.182000000     0.003000000
H     3.763000000    -3.646000000    -0.826000000
O     4.162000000    -6.481000000     0.366000000
H     4.418000000    -5.909000000    -0.357000000
H     4.752000000    -6.242000000     1.081000000
O     2.521000000     1.149000000    -6.739000000
H     2.614000000     1.711000000    -5.969000000
H     2.756000000     0.275000000    -6.427000000
O     3.903000000     3.539000000     2.467000000
H     3.836000000     2.584000000     2.469000000
H     4.434000000     3.739000000     1.696000000
O    -1.957000000    -1.891000000     6.223000000
H    -1.453000000    -2.094000000     7.011000000
H    -2.120000000    -2.743000000     5.818000000
O    -4.168000000     3.228000000     0.584000000
H    -5.046000000     2.983000000     0.291000000
H    -3.989000000     2.642000000     1.319000000
