161
-3050.77035
C     1.387000000    -0.150000000    -0.434000000
H     2.377000000    -0.153000000    -0.881000000
C     0.588000000     0.895000000    -0.733000000
H     0.948000000     1.710000000    -1.357000000
C    -0.739000000     0.921000000    -0.297000000
C    -1.674000000     1.971000000    -0.656000000
H    -2.294000000     1.574000000    -1.462000000
H    -2.476000000     2.168000000     0.059000000
H    -1.286000000     2.938000000    -0.980000000
C    -1.294000000    -0.133000000     0.451000000
H    -2.361000000    -0.112000000     0.659000000
C    -0.373000000    -1.125000000     0.935000000
H    -0.656000000    -1.960000000     1.571000000
C     0.954000000    -1.164000000     0.406000000
C     1.987000000    -2.191000000     0.774000000
O     1.787000000    -3.040000000     1.632000000
O     3.130000000    -2.148000000     0.316000000
O     0.074000000    -4.125000000    -1.646000000
H     0.568000000    -4.867000000    -1.297000000
H    -0.768000000    -4.163000000    -1.192000000
O     3.050000000    -2.779000000    -4.641000000
H     2.730000000    -3.518000000    -5.158000000
H     2.312000000    -2.545000000    -4.077000000
O    -4.165000000    -0.679000000     3.377000000
H    -4.135000000    -0.509000000     4.319000000
H    -4.004000000     0.174000000     2.975000000
O     2.892000000    -5.214000000    -0.197000000
H     3.365000000    -5.422000000     0.609000000
H     2.603000000    -4.310000000    -0.079000000
O    -5.192000000     2.964000000    -4.414000000
H    -4.981000000     3.059000000    -3.485000000
H    -4.895000000     3.782000000    -4.812000000
O     4.762000000     1.992000000    -1.404000000
H     5.027000000     1.815000000    -0.502000000
H     5.574000000     1.937000000    -1.907000000
O     0.788000000     5.140000000     0.348000000
H     1.160000000     4.419000000    -0.161000000
H     1.540000000     5.687000000     0.574000000
O     0.654000000    -6.842000000     4.208000000
H    -0.137000000    -7.359000000     4.057000000
H     0.801000000    -6.382000000     3.381000000
O     0.041000000    -7.879000000     0.531000000
H     0.001000000    -6.987000000     0.876000000
H    -0.176000000    -7.787000000    -0.397000000
O    -3.343000000     1.962000000     2.752000000
H    -3.631000000     2.593000000     3.412000000
H    -2.553000000     2.351000000     2.378000000
O    -1.573000000     5.945000000    -1.141000000
H    -1.345000000     6.244000000    -0.261000000
H    -0.740000000     5.671000000    -1.524000000
O     3.451000000    -0.426000000     3.758000000
H     3.748000000    -0.477000000     2.849000000
H     4.234000000    -0.185000000     4.252000000
O    -4.461000000    -3.682000000    -1.174000000
H    -3.759000000    -3.077000000    -1.412000000
H    -5.243000000    -3.133000000    -1.118000000
O    -1.249000000    -5.082000000     5.308000000
H    -0.424000000    -5.369000000     4.917000000
H    -1.240000000    -4.130000000     5.214000000
O     2.713000000     3.839000000    -1.390000000
H     2.658000000     3.632000000    -2.323000000
H     3.456000000     3.324000000    -1.074000000
O    -0.857000000     0.909000000    -5.359000000
H    -0.361000000     1.574000000    -4.882000000
H    -0.329000000     0.728000000    -6.137000000
O    -2.874000000     6.102000000    -3.961000000
H    -2.612000000     5.367000000    -4.515000000
H    -2.414000000     5.955000000    -3.135000000
O     5.748000000    -2.603000000    -0.462000000
H     6.102000000    -3.351000000     0.019000000
H     4.799000000    -2.687000000    -0.369000000
O     3.889000000    -5.324000000     4.883000000
H     3.017000000    -5.152000000     4.529000000
H     4.457000000    -4.695000000     4.437000000
O     0.881000000     2.943000000    -4.926000000
H     0.885000000     3.795000000    -4.489000000
H     1.175000000     3.130000000    -5.817000000
O    -5.440000000    -0.514000000    -4.094000000
H    -4.875000000    -0.135000000    -4.767000000
H    -5.317000000     0.051000000    -3.331000000
O    -1.090000000     2.355000000     4.832000000
H    -1.227000000     2.903000000     4.059000000
H    -0.794000000     2.965000000     5.508000000
O    -3.325000000    -3.426000000     2.644000000
H    -2.721000000    -3.597000000     3.366000000
H    -3.492000000    -2.485000000     2.688000000
O    -0.819000000     3.323000000     2.127000000
H    -0.474000000     3.743000000     1.339000000
H    -0.050000000     3.182000000     2.679000000
O     4.954000000    -3.286000000    -2.795000000
H     5.227000000    -2.550000000    -2.246000000
H     4.364000000    -2.897000000    -3.440000000
O     0.839000000    -1.822000000    -2.836000000
H     1.078000000    -1.145000000    -2.203000000
H     0.813000000    -2.630000000    -2.325000000
O     0.768000000     5.462000000    -3.934000000
H     1.724000000     5.419000000    -3.912000000
H     0.572000000     6.395000000    -4.021000000
O    -5.109000000     1.719000000     0.487000000
H    -4.616000000     1.807000000     1.303000000
H    -5.898000000     1.237000000     0.734000000
O     1.582000000     2.846000000     3.583000000
H     1.549000000     1.945000000     3.262000000
H     2.309000000     2.852000000     4.205000000
O    -1.989000000     6.184000000     1.559000000
H    -2.052000000     5.240000000     1.701000000
H    -2.885000000     6.456000000     1.359000000
O     6.132000000    -0.596000000    -2.475000000
H     6.496000000     0.214000000    -2.831000000
H     6.053000000    -0.431000000    -1.535000000
O     1.422000000    -1.249000000     5.168000000
H     0.772000000    -0.846000000     4.594000000
H     2.247000000    -0.825000000     4.932000000
O     0.139000000    -5.157000000     1.633000000
H     0.768000000    -4.436000000     1.669000000
H    -0.649000000    -4.768000000     1.255000000
O    -2.286000000    -4.421000000     0.338000000
H    -2.732000000    -3.865000000     0.976000000
H    -2.985000000    -4.740000000    -0.233000000
O    -2.805000000    -1.458000000    -1.678000000
H    -2.389000000    -1.551000000    -2.535000000
H    -2.076000000    -1.348000000    -1.068000000
O    -4.800000000     0.435000000    -1.763000000
H    -4.188000000    -0.239000000    -1.469000000
H    -4.883000000     1.027000000    -1.014000000
O     4.525000000    -4.466000000     1.912000000
H     3.864000000    -3.845000000     1.605000000
H     5.059000000    -3.963000000     2.527000000
O     4.151000000     0.685000000    -4.775000000
H     3.290000000     0.832000000    -4.383000000
H     4.330000000    -0.243000000    -4.619000000
O     4.216000000     2.603000000     1.509000000
H     3.524000000     2.719000000     2.160000000
H     4.268000000     1.656000000     1.381000000
O     1.703000000    -3.793000000     4.176000000
H     1.844000000    -3.417000000     3.307000000
H     1.545000000    -3.037000000     4.742000000
O    -1.499000000    -1.627000000    -4.383000000
H    -1.173000000    -0.769000000    -4.654000000
H    -0.797000000    -1.991000000    -3.845000000
O    -5.370000000     3.623000000    -1.625000000
H    -5.063000000     4.523000000    -1.512000000
H    -4.939000000     3.134000000    -0.925000000
O    -3.649000000     0.986000000    -5.879000000
H    -2.700000000     0.961000000    -5.757000000
H    -3.948000000     1.683000000    -5.294000000
O     0.051000000     0.339000000     3.506000000
H    -0.311000000     1.034000000     4.055000000
H    -0.507000000     0.332000000     2.729000000
O     4.509000000    -0.138000000     1.353000000
H     4.131000000    -0.807000000     0.782000000
H     5.453000000    -0.208000000     1.211000000
O    -1.238000000    -2.048000000     5.141000000
H    -1.837000000    -1.376000000     4.816000000
H    -0.743000000    -1.611000000     5.835000000
O     7.191000000    -0.277000000     0.107000000
H     8.114000000    -0.032000000     0.049000000
H     7.188000000    -1.228000000    -0.003000000
O    -4.601000000     6.253000000    -1.086000000
H    -3.670000000     6.047000000    -1.167000000
H    -4.621000000     7.171000000    -0.815000000
