161
-3024.11606
C     1.051000000    -0.415000000    -0.917000000
H     1.852000000    -0.619000000    -1.622000000
C     0.288000000     0.742000000    -1.064000000
H     0.514000000     1.281000000    -1.981000000
C    -0.608000000     1.100000000    -0.108000000
C    -1.499000000     2.264000000    -0.213000000
H    -1.391000000     2.842000000    -1.133000000
H    -2.515000000     1.864000000    -0.231000000
H    -1.358000000     2.875000000     0.681000000
C    -0.697000000     0.270000000     1.063000000
H    -1.423000000     0.540000000     1.825000000
C    -0.037000000    -0.955000000     1.114000000
H    -0.292000000    -1.633000000     1.924000000
C     0.925000000    -1.304000000     0.168000000
C     1.552000000    -2.621000000     0.166000000
O     1.359000000    -3.333000000     1.116000000
O     2.275000000    -2.902000000    -0.793000000
O     0.591000000    -4.922000000    -1.546000000
H     0.694000000    -5.572000000    -0.851000000
H     1.351000000    -4.348000000    -1.451000000
O     2.690000000    -0.953000000    -4.986000000
H     2.874000000    -1.751000000    -5.482000000
H     1.740000000    -0.954000000    -4.874000000
O    -0.713000000    -7.163000000     3.324000000
H    -1.305000000    -7.039000000     4.065000000
H    -1.157000000    -6.741000000     2.589000000
O    -3.446000000    -1.482000000    -4.100000000
H    -2.759000000    -1.513000000    -3.434000000
H    -3.460000000    -0.569000000    -4.387000000
O    -4.177000000    -0.547000000     3.592000000
H    -3.853000000     0.343000000     3.729000000
H    -5.114000000    -0.438000000     3.429000000
O    -1.963000000     7.298000000    -4.160000000
H    -2.136000000     6.514000000    -3.639000000
H    -2.722000000     7.373000000    -4.738000000
O     1.929000000    -6.760000000     0.312000000
H     1.241000000    -7.096000000     0.887000000
H     2.387000000    -7.542000000     0.004000000
O     5.787000000     1.701000000    -2.722000000
H     6.419000000     2.368000000    -2.454000000
H     5.257000000     1.545000000    -1.941000000
O     0.478000000     6.138000000     1.993000000
H     0.473000000     6.742000000     2.735000000
H     1.377000000     6.168000000     1.665000000
O    -4.539000000     4.232000000    -3.449000000
H    -4.689000000     3.364000000    -3.074000000
H    -3.651000000     4.461000000    -3.176000000
O     3.149000000    -5.117000000     2.352000000
H     3.045000000    -5.922000000     1.845000000
H     2.333000000    -4.638000000     2.211000000
O    -5.855000000     0.968000000     0.808000000
H    -5.237000000     1.689000000     0.926000000
H    -6.538000000     1.129000000     1.459000000
O    -0.836000000    -7.818000000    -0.325000000
H    -1.758000000    -7.785000000    -0.072000000
H    -0.490000000    -6.958000000    -0.087000000
O    -4.386000000     3.629000000     1.240000000
H    -4.764000000     3.818000000     2.098000000
H    -3.450000000     3.800000000     1.348000000
O     6.657000000    -0.858000000    -2.863000000
H     5.764000000    -1.156000000    -2.689000000
H     6.568000000     0.081000000    -3.026000000
O    -0.344000000     5.863000000    -0.710000000
H     0.031000000     5.913000000     0.169000000
H    -0.083000000     6.684000000    -1.129000000
O    -3.602000000     6.805000000     0.662000000
H    -4.444000000     6.934000000     1.099000000
H    -3.117000000     6.220000000     1.245000000
O    -6.357000000     3.969000000    -1.087000000
H    -5.821000000     4.325000000    -1.796000000
H    -5.723000000     3.653000000    -0.443000000
O     5.153000000     0.785000000     1.947000000
H     4.201000000     0.834000000     2.029000000
H     5.302000000     0.109000000     1.286000000
O    -4.822000000    -0.804000000    -1.093000000
H    -5.464000000    -0.796000000    -1.803000000
H    -5.182000000    -0.206000000    -0.438000000
O     2.947000000    -6.145000000    -4.895000000
H     2.345000000    -5.438000000    -4.664000000
H     2.857000000    -6.236000000    -5.844000000
O     1.692000000    -4.639000000     6.158000000
H     1.311000000    -5.428000000     5.774000000
H     1.642000000    -3.985000000     5.461000000
O     0.413000000     1.074000000    -7.150000000
H     0.676000000     1.716000000    -6.490000000
H    -0.032000000     1.589000000    -7.822000000
O    -2.848000000     5.774000000    -2.003000000
H    -3.410000000     6.248000000    -1.390000000
H    -2.031000000     5.639000000    -1.523000000
O     3.789000000    -4.975000000    -0.774000000
H     3.445000000    -5.623000000    -0.159000000
H     3.229000000    -4.208000000    -0.652000000
O     4.047000000    -6.435000000     4.782000000
H     3.694000000    -5.790000000     4.169000000
H     3.292000000    -6.966000000     5.034000000
O     0.907000000     2.860000000    -5.103000000
H     0.379000000     3.352000000    -4.474000000
H     1.439000000     2.275000000    -4.564000000
O    -2.892000000    -2.780000000     2.829000000
H    -3.025000000    -1.927000000     3.241000000
H    -2.670000000    -3.365000000     3.554000000
O    -2.118000000     5.081000000     2.378000000
H    -1.214000000     5.380000000     2.468000000
H    -2.328000000     4.695000000     3.229000000
O     5.081000000    -4.987000000    -3.203000000
H     4.639000000    -5.473000000    -3.900000000
H     4.474000000    -5.023000000    -2.464000000
O    -0.120000000    -0.382000000    -4.041000000
H    -0.890000000    -0.862000000    -4.344000000
H    -0.150000000    -0.459000000    -3.087000000
O     1.083000000     4.264000000    -2.550000000
H     1.863000000     4.339000000    -2.001000000
H     0.391000000     4.687000000    -2.042000000
O    -3.542000000     2.026000000     4.422000000
H    -3.043000000     2.842000000     4.464000000
H    -3.904000000     1.921000000     5.302000000
O     4.129000000    -1.658000000    -2.133000000
H     3.669000000    -1.274000000    -2.879000000
H     3.457000000    -2.154000000    -1.666000000
O     1.400000000     0.019000000     4.924000000
H     2.051000000     0.309000000     5.563000000
H     0.706000000    -0.376000000     5.452000000
O    -1.053000000    -5.365000000     1.336000000
H    -0.375000000    -4.690000000     1.322000000
H    -1.867000000    -4.891000000     1.163000000
O    -1.338000000    -2.296000000    -2.186000000
H    -0.921000000    -3.158000000    -2.179000000
H    -1.944000000    -2.317000000    -1.446000000
O    -3.172000000     1.210000000    -4.913000000
H    -2.274000000     1.252000000    -5.241000000
H    -3.710000000     1.503000000    -5.649000000
O    -4.558000000     1.678000000    -2.412000000
H    -4.343000000     1.381000000    -3.296000000
H    -4.457000000     0.898000000    -1.866000000
O     4.264000000    -2.717000000     2.840000000
H     3.749000000    -3.501000000     2.648000000
H     4.558000000    -2.409000000     1.983000000
O     4.313000000     1.322000000    -5.474000000
H     5.091000000     0.959000000    -5.051000000
H     3.699000000     0.589000000    -5.516000000
O     2.551000000     0.727000000     2.448000000
H     2.218000000     0.676000000     3.344000000
H     1.789000000     0.544000000     1.899000000
O     1.428000000    -3.248000000     3.776000000
H     1.155000000    -3.269000000     2.859000000
H     2.217000000    -2.707000000     3.779000000
O    -3.352000000    -2.603000000     0.058000000
H    -3.171000000    -2.253000000     0.930000000
H    -3.843000000    -1.909000000    -0.382000000
O    -1.410000000    -0.668000000     6.056000000
H    -2.048000000    -0.389000000     6.713000000
H    -1.442000000     0.014000000     5.386000000
O    -1.479000000    -5.776000000    -2.967000000
H    -1.283000000    -6.710000000    -2.893000000
H    -0.889000000    -5.358000000    -2.340000000
O    -1.177000000    -3.797000000     5.080000000
H    -0.899000000    -3.100000000     5.674000000
H    -0.564000000    -3.745000000     4.347000000
O     5.614000000    -1.743000000     0.183000000
H     6.173000000    -2.496000000    -0.009000000
H     5.050000000    -1.661000000    -0.586000000
