161
-3048.80256
C     1.360000000    -0.573000000     0.011000000
H     2.377000000    -0.934000000    -0.117000000
C     1.076000000     0.808000000     0.058000000
H     1.808000000     1.611000000     0.037000000
C    -0.258000000     1.205000000    -0.038000000
C    -0.682000000     2.692000000     0.111000000
H    -1.762000000     2.769000000     0.250000000
H    -0.307000000     2.994000000     1.091000000
H    -0.135000000     3.275000000    -0.633000000
C    -1.255000000     0.267000000    -0.091000000
H    -2.289000000     0.603000000    -0.104000000
C    -0.975000000    -1.105000000    -0.174000000
H    -1.773000000    -1.837000000    -0.274000000
C     0.356000000    -1.525000000     0.028000000
C     0.736000000    -3.015000000    -0.022000000
O    -0.187000000    -3.821000000    -0.209000000
O     1.907000000    -3.413000000     0.071000000
O    -1.950000000    -4.681000000    -2.146000000
H    -1.921000000    -4.353000000    -3.045000000
H    -1.267000000    -4.189000000    -1.689000000
O     3.754000000    -7.728000000    -2.070000000
H     3.994000000    -7.004000000    -2.648000000
H     2.934000000    -7.447000000    -1.663000000
O     4.572000000    -3.216000000     0.248000000
H     4.787000000    -4.140000000     0.374000000
H     3.629000000    -3.166000000     0.407000000
O    -0.002000000     0.043000000    -4.813000000
H     0.560000000    -0.376000000    -4.161000000
H    -0.802000000     0.260000000    -4.336000000
O    -4.912000000     0.682000000     1.094000000
H    -5.098000000     0.789000000     0.161000000
H    -4.666000000    -0.238000000     1.186000000
O     2.877000000    -7.605000000     1.457000000
H     2.207000000    -8.109000000     1.919000000
H     2.410000000    -7.196000000     0.729000000
O     0.833000000     5.259000000    -3.212000000
H     0.920000000     4.375000000    -3.570000000
H     1.612000000     5.720000000    -3.523000000
O     0.438000000    -5.019000000     4.661000000
H     0.122000000    -4.145000000     4.891000000
H     1.099000000    -4.864000000     3.986000000
O    -3.681000000     3.074000000    -1.593000000
H    -4.554000000     3.346000000    -1.878000000
H    -3.105000000     3.783000000    -1.879000000
O    -0.518000000    -7.870000000    -0.534000000
H    -1.317000000    -7.693000000    -1.029000000
H    -0.823000000    -8.285000000     0.273000000
O     7.505000000     0.270000000    -0.330000000
H     7.231000000    -0.606000000    -0.600000000
H     6.769000000     0.835000000    -0.567000000
O     1.384000000    -6.127000000    -0.796000000
H     0.589000000    -6.634000000    -0.634000000
H     1.128000000    -5.220000000    -0.628000000
O    -3.056000000    -7.202000000    -1.497000000
H    -3.537000000    -7.096000000    -0.676000000
H    -2.812000000    -6.311000000    -1.749000000
O    -4.547000000    -6.430000000     0.819000000
H    -5.094000000    -6.869000000     1.470000000
H    -3.978000000    -5.857000000     1.333000000
O     2.295000000    -0.800000000    -3.207000000
H     2.896000000    -0.654000000    -3.937000000
H     2.737000000    -1.448000000    -2.659000000
O     4.899000000    -6.023000000     0.646000000
H     4.936000000    -6.530000000    -0.165000000
H     4.377000000    -6.561000000     1.241000000
O     5.172000000     1.579000000    -1.013000000
H     4.766000000     1.835000000    -1.841000000
H     5.129000000     2.368000000    -0.472000000
O     3.882000000     4.551000000    -1.929000000
H     3.430000000     3.738000000    -2.154000000
H     3.512000000     4.805000000    -1.083000000
O    -1.327000000     8.119000000     1.220000000
H    -1.594000000     7.463000000     0.576000000
H    -0.487000000     7.802000000     1.551000000
O    -5.572000000    -1.660000000    -1.000000000
H    -5.307000000    -2.419000000    -1.519000000
H    -5.172000000    -0.913000000    -1.447000000
O    -2.440000000    -4.733000000     1.919000000
H    -1.499000000    -4.838000000     1.779000000
H    -2.684000000    -3.995000000     1.361000000
O     2.867000000     1.925000000    -2.851000000
H     2.849000000     1.028000000    -2.518000000
H     2.162000000     1.955000000    -3.498000000
O    -2.820000000     5.686000000     0.534000000
H    -3.719000000     5.769000000     0.219000000
H    -2.415000000     5.053000000    -0.059000000
O    -2.676000000    -4.445000000     4.600000000
H    -2.613000000    -4.654000000     3.668000000
H    -1.882000000    -3.942000000     4.786000000
O    -4.486000000    -3.367000000    -2.734000000
H    -4.229000000    -2.991000000    -3.576000000
H    -3.722000000    -3.873000000    -2.455000000
O     1.997000000    -4.354000000     2.601000000
H     2.762000000    -3.937000000     2.997000000
H     2.016000000    -4.072000000     1.687000000
O     0.920000000     2.816000000    -4.543000000
H     0.963000000     2.506000000    -5.447000000
H     0.181000000     2.342000000    -4.162000000
O     0.302000000     4.087000000     4.424000000
H    -0.503000000     4.594000000     4.315000000
H     0.068000000     3.398000000     5.046000000
O    -6.613000000     2.544000000     2.727000000
H    -6.095000000     1.903000000     2.240000000
H    -7.145000000     2.979000000     2.061000000
O    -2.138000000     5.210000000     3.275000000
H    -2.818000000     4.666000000     3.673000000
H    -2.398000000     5.285000000     2.357000000
O     3.902000000     3.376000000     3.435000000
H     4.464000000     3.686000000     4.145000000
H     3.312000000     4.109000000     3.259000000
O    -1.927000000     2.032000000    -3.752000000
H    -2.648000000     1.804000000    -4.339000000
H    -2.233000000     2.810000000    -3.287000000
O    -3.666000000    -1.532000000     1.805000000
H    -3.220000000    -0.869000000     2.331000000
H    -4.298000000    -1.929000000     2.405000000
O     4.341000000    -5.477000000    -3.574000000
H     4.502000000    -4.534000000    -3.623000000
H     4.392000000    -5.776000000    -4.481000000
O     2.900000000    -3.300000000    -2.245000000
H     2.848000000    -4.208000000    -2.545000000
H     2.746000000    -3.351000000    -1.302000000
O     3.398000000    -0.385000000     5.026000000
H     3.752000000    -1.252000000     4.826000000
H     3.192000000    -0.008000000     4.171000000
O     0.823000000    -3.108000000    -4.508000000
H     1.495000000    -3.205000000    -3.833000000
H     1.159000000    -2.420000000    -5.083000000
O     2.220000000     5.893000000     3.290000000
H     1.519000000     5.279000000     3.507000000
H     1.838000000     6.757000000     3.446000000
O     5.181000000    -1.120000000     1.669000000
H     4.964000000    -1.848000000     1.086000000
H     4.333000000    -0.804000000     1.983000000
O    -1.686000000    -4.420000000    -4.668000000
H    -1.598000000    -5.322000000    -4.978000000
H    -0.788000000    -4.090000000    -4.636000000
O     7.156000000    -2.039000000    -1.574000000
H     7.873000000    -2.651000000    -1.740000000
H     6.750000000    -2.359000000    -0.768000000
O     3.253000000     0.930000000     2.589000000
H     2.448000000     1.071000000     2.092000000
H     3.459000000     1.789000000     2.959000000
O     6.588000000     1.689000000     2.556000000
H     5.687000000     1.715000000     2.880000000
H     6.617000000     0.917000000     1.992000000
O    -4.232000000     0.389000000    -2.378000000
H    -3.754000000     1.129000000    -2.004000000
H    -4.388000000     0.641000000    -3.289000000
O     3.245000000     5.635000000     0.591000000
H     4.027000000     6.034000000     0.974000000
H     2.843000000     5.155000000     1.315000000
O    -1.879000000     0.192000000     3.208000000
H    -1.345000000     0.041000000     2.428000000
H    -1.244000000     0.308000000     3.914000000
O    -3.869000000    -0.165000000     4.960000000
H    -3.155000000     0.008000000     4.346000000
H    -3.760000000     0.494000000     5.646000000
O    -1.880000000     5.324000000    -2.221000000
H    -0.968000000     5.349000000    -2.510000000
H    -2.260000000     6.136000000    -2.558000000
