161
-3040.11795
C     0.834000000    -0.775000000    -0.985000000
H     1.507000000    -1.277000000    -1.676000000
C     1.240000000     0.290000000    -0.246000000
H     2.247000000     0.698000000    -0.277000000
C     0.401000000     0.900000000     0.702000000
C     0.856000000     2.183000000     1.378000000
H     0.333000000     3.029000000     0.926000000
H     0.561000000     2.119000000     2.427000000
H     1.934000000     2.189000000     1.205000000
C    -0.892000000     0.526000000     0.884000000
H    -1.585000000     1.016000000     1.563000000
C    -1.312000000    -0.612000000     0.135000000
H    -2.336000000    -0.938000000     0.301000000
C    -0.454000000    -1.269000000    -0.781000000
C    -0.989000000    -2.403000000    -1.620000000
O    -2.194000000    -2.684000000    -1.659000000
O    -0.143000000    -2.994000000    -2.279000000
O     4.089000000     2.780000000     3.369000000
H     3.614000000     2.695000000     2.542000000
H     5.004000000     2.890000000     3.109000000
O    -1.247000000     6.036000000     1.881000000
H    -1.557000000     5.261000000     2.348000000
H    -1.228000000     6.725000000     2.545000000
O     2.275000000    -6.395000000    -5.559000000
H     2.554000000    -6.715000000    -4.701000000
H     1.962000000    -5.506000000    -5.393000000
O     4.885000000     6.028000000     2.798000000
H     4.623000000     6.864000000     3.183000000
H     4.357000000     5.375000000     3.258000000
O    -2.275000000     0.681000000    -3.987000000
H    -2.659000000     1.491000000    -3.652000000
H    -1.842000000     0.940000000    -4.800000000
O     2.212000000    -3.981000000    -0.789000000
H     1.538000000    -4.074000000    -1.463000000
H     1.869000000    -4.469000000    -0.040000000
O     2.501000000    -6.779000000    -2.628000000
H     2.662000000    -5.870000000    -2.374000000
H     3.362000000    -7.196000000    -2.583000000
O     4.855000000    -1.095000000    -0.128000000
H     5.011000000    -1.117000000    -1.073000000
H     4.589000000    -1.988000000     0.091000000
O    -0.915000000     6.562000000    -0.714000000
H     0.009000000     6.468000000    -0.946000000
H    -0.939000000     6.426000000     0.233000000
O    -6.575000000    -2.179000000    -3.113000000
H    -5.635000000    -2.043000000    -3.227000000
H    -6.647000000    -3.062000000    -2.750000000
O     2.587000000    -1.818000000     1.837000000
H     2.298000000    -1.265000000     1.111000000
H     3.237000000    -1.288000000     2.298000000
O     3.204000000     4.372000000    -1.127000000
H     3.546000000     3.866000000    -0.391000000
H     3.322000000     5.286000000    -0.867000000
O     4.886000000     0.841000000    -2.159000000
H     3.965000000     0.606000000    -2.270000000
H     5.001000000     1.622000000    -2.700000000
O     2.605000000     0.271000000    -4.134000000
H     2.602000000     1.181000000    -4.429000000
H     1.682000000     0.016000000    -4.135000000
O     0.510000000    -8.084000000    -3.559000000
H     1.162000000    -7.533000000    -3.127000000
H     1.024000000    -8.702000000    -4.078000000
O     2.107000000    -3.965000000    -3.811000000
H     1.326000000    -3.660000000    -3.350000000
H     2.391000000    -3.210000000    -4.327000000
O    -3.735000000    -1.212000000     3.317000000
H    -4.155000000    -1.693000000     4.030000000
H    -3.622000000    -1.862000000     2.624000000
O     4.528000000     0.035000000     2.238000000
H     4.697000000    -0.278000000     1.349000000
H     4.507000000     0.989000000     2.156000000
O    -2.086000000    -6.745000000    -0.335000000
H    -2.035000000    -6.227000000    -1.138000000
H    -2.999000000    -6.670000000    -0.059000000
O     4.742000000     2.593000000     0.590000000
H     5.295000000     3.281000000     0.220000000
H     4.689000000     1.931000000    -0.100000000
O    -5.093000000     0.761000000     2.029000000
H    -5.800000000     0.311000000     1.567000000
H    -4.554000000     0.056000000     2.388000000
O    -3.751000000     2.726000000    -2.556000000
H    -4.578000000     2.993000000    -2.958000000
H    -3.985000000     2.496000000    -1.657000000
O    -2.750000000     4.080000000     3.518000000
H    -3.608000000     4.366000000     3.833000000
H    -2.753000000     3.131000000     3.643000000
O     1.161000000    -2.229000000    -7.033000000
H     0.366000000    -2.350000000    -6.514000000
H     1.224000000    -3.023000000    -7.564000000
O    -1.549000000    -5.200000000     1.846000000
H    -1.062000000    -4.390000000     1.693000000
H    -1.429000000    -5.707000000     1.043000000
O    -0.278000000    -1.346000000     4.413000000
H    -0.924000000    -0.642000000     4.475000000
H     0.168000000    -1.337000000     5.260000000
O    -5.439000000    -4.747000000    -2.063000000
H    -5.704000000    -5.398000000    -2.712000000
H    -5.905000000    -4.998000000    -1.266000000
O    -5.873000000     2.788000000     3.845000000
H    -6.774000000     2.469000000     3.793000000
H    -5.377000000     2.203000000     3.272000000
O     1.966000000     5.268000000     1.812000000
H     1.255000000     4.655000000     1.622000000
H     1.808000000     5.545000000     2.715000000
O    -3.983000000    -1.368000000    -3.249000000
H    -3.390000000    -0.774000000    -3.710000000
H    -3.426000000    -1.820000000    -2.615000000
O    -2.741000000     1.462000000     4.093000000
H    -2.842000000     0.550000000     3.819000000
H    -2.511000000     1.409000000     5.021000000
O     2.227000000     6.936000000    -0.396000000
H     2.135000000     6.341000000     0.349000000
H     2.729000000     7.674000000    -0.052000000
O    -1.229000000    -3.890000000    -6.133000000
H    -1.408000000    -4.765000000    -5.790000000
H    -1.043000000    -3.362000000    -5.357000000
O     4.728000000    -3.558000000     1.625000000
H     4.857000000    -3.438000000     2.566000000
H     3.790000000    -3.423000000     1.493000000
O     3.612000000     2.976000000     5.945000000
H     3.701000000     2.804000000     5.007000000
H     3.547000000     3.928000000     6.009000000
O     4.612000000    -3.614000000    -2.028000000
H     3.746000000    -3.821000000    -1.676000000
H     4.625000000    -4.030000000    -2.890000000
O    -3.771000000     2.979000000     0.674000000
H    -4.142000000     2.230000000     1.142000000
H    -2.899000000     3.089000000     1.052000000
O    -3.983000000    -5.085000000     3.471000000
H    -4.930000000    -5.026000000     3.346000000
H    -3.613000000    -4.793000000     2.638000000
O    -4.725000000    -4.636000000    -5.082000000
H    -4.179000000    -4.413000000    -4.327000000
H    -5.284000000    -5.348000000    -4.771000000
O     0.361000000     2.084000000    -3.367000000
H     0.069000000     2.991000000    -3.274000000
H    -0.280000000     1.574000000    -2.872000000
O     3.647000000    -2.232000000    -5.398000000
H     3.032000000    -2.328000000    -6.125000000
H     3.536000000    -1.327000000    -5.108000000
O    -3.932000000    -2.985000000     1.158000000
H    -3.164000000    -2.788000000     0.621000000
H    -4.627000000    -3.163000000     0.525000000
O     1.441000000     5.977000000     4.487000000
H     1.613000000     6.841000000     4.113000000
H     1.967000000     5.953000000     5.286000000
O    -1.130000000     5.227000000     5.456000000
H    -0.260000000     5.444000000     5.122000000
H    -1.555000000     4.761000000     4.736000000
O    -1.474000000    -6.231000000    -4.738000000
H    -1.682000000    -5.794000000    -3.913000000
H    -0.857000000    -6.921000000    -4.495000000
O    -0.223000000    -1.714000000    -4.661000000
H    -0.288000000    -2.039000000    -3.764000000
H    -0.727000000    -0.900000000    -4.658000000
O     0.011000000    -3.041000000     1.861000000
H     0.957000000    -2.919000000     1.785000000
H    -0.321000000    -2.182000000     2.122000000
O    -2.596000000    -5.004000000    -2.572000000
H    -3.500000000    -4.864000000    -2.290000000
H    -2.124000000    -4.233000000    -2.257000000
