161
-3064.79474
C     0.377000000     1.128000000    -0.891000000
H     0.508000000     2.061000000    -1.434000000
C    -0.584000000     1.102000000     0.119000000
H    -0.997000000     2.084000000     0.335000000
C    -0.915000000    -0.020000000     0.886000000
C    -1.984000000    -0.041000000     1.929000000
H    -2.562000000    -0.963000000     1.842000000
H    -1.605000000     0.149000000     2.936000000
H    -2.723000000     0.722000000     1.675000000
C    -0.216000000    -1.199000000     0.585000000
H    -0.342000000    -2.081000000     1.209000000
C     0.790000000    -1.171000000    -0.453000000
H     1.287000000    -2.108000000    -0.690000000
C     1.041000000    -0.027000000    -1.203000000
C     2.283000000     0.084000000    -2.071000000
O     2.944000000    -0.938000000    -2.318000000
O     2.691000000     1.213000000    -2.458000000
O    -2.897000000    -3.355000000     7.192000000
H    -2.603000000    -4.144000000     6.736000000
H    -2.954000000    -2.689000000     6.507000000
O    -0.288000000     5.161000000    -2.619000000
H    -0.017000000     4.434000000    -3.179000000
H     0.504000000     5.401000000    -2.138000000
O    -2.554000000    -4.958000000     3.455000000
H    -1.957000000    -4.288000000     3.788000000
H    -3.385000000    -4.499000000     3.332000000
O     4.508000000     2.762000000     1.403000000
H     4.112000000     3.542000000     1.016000000
H     4.699000000     2.195000000     0.656000000
O    -0.119000000     3.214000000     3.727000000
H    -0.816000000     2.606000000     3.970000000
H     0.619000000     2.652000000     3.491000000
O     2.257000000    -2.602000000     5.293000000
H     1.602000000    -1.905000000     5.292000000
H     2.789000000    -2.433000000     4.516000000
O     1.153000000     3.126000000    -3.858000000
H     1.581000000     2.412000000    -3.384000000
H     1.753000000     3.330000000    -4.576000000
O     2.425000000    -2.017000000    -6.185000000
H     3.107000000    -2.318000000    -5.584000000
H     1.675000000    -1.828000000    -5.620000000
O    -5.408000000     0.832000000    -1.151000000
H    -5.115000000     1.296000000    -0.367000000
H    -6.303000000     1.139000000    -1.292000000
O    -2.002000000     1.912000000     5.448000000
H    -2.276000000     1.021000000     5.665000000
H    -1.923000000     2.351000000     6.295000000
O     6.031000000    -3.282000000    -5.211000000
H     6.837000000    -3.063000000    -5.679000000
H     5.695000000    -2.439000000    -4.905000000
O    -3.432000000    -1.261000000    -1.911000000
H    -4.011000000    -0.574000000    -1.580000000
H    -3.965000000    -1.738000000    -2.547000000
O     4.834000000     2.180000000    -1.165000000
H     5.518000000     2.197000000    -1.834000000
H     4.038000000     1.946000000    -1.642000000
O    -1.223000000    -3.462000000    -5.199000000
H    -0.597000000    -3.062000000    -4.595000000
H    -0.681000000    -3.967000000    -5.805000000
O    -1.277000000    -2.732000000     4.347000000
H    -1.895000000    -2.004000000     4.415000000
H    -0.428000000    -2.345000000     4.565000000
O     4.366000000    -4.276000000    -3.063000000
H     5.174000000    -4.570000000    -2.642000000
H     4.661000000    -3.714000000    -3.780000000
O     2.062000000     0.875000000    -6.662000000
H     2.110000000     0.003000000    -6.270000000
H     1.639000000     0.733000000    -7.509000000
O     4.487000000     1.900000000    -4.213000000
H     3.648000000     1.649000000    -3.828000000
H     4.253000000     2.400000000    -4.995000000
O     2.776000000    -6.734000000    -1.088000000
H     3.314000000    -7.439000000    -0.728000000
H     2.426000000    -6.283000000    -0.320000000
O     0.446000000    -0.579000000     5.340000000
H     0.761000000     0.280000000     5.060000000
H    -0.054000000    -0.402000000     6.137000000
O    -1.350000000    -0.073000000    -3.300000000
H    -0.638000000    -0.712000000    -3.253000000
H    -2.063000000    -0.471000000    -2.801000000
O     2.611000000     4.752000000    -1.345000000
H     2.800000000     3.876000000    -1.681000000
H     3.187000000     4.847000000    -0.586000000
O     4.534000000     0.046000000     0.287000000
H     4.669000000    -0.803000000    -0.134000000
H     4.552000000     0.676000000    -0.434000000
O    -0.896000000     7.158000000    -0.274000000
H    -0.070000000     7.362000000     0.164000000
H    -1.324000000     6.526000000     0.304000000
O    -7.523000000     0.526000000     2.185000000
H    -6.923000000     1.024000000     1.630000000
H    -7.683000000     1.097000000     2.937000000
O    -2.648000000     2.355000000    -2.178000000
H    -1.998000000     1.781000000    -2.583000000
H    -3.161000000     1.775000000    -1.615000000
O    -3.454000000    -3.737000000    -0.385000000
H    -3.164000000    -2.944000000    -0.835000000
H    -3.746000000    -4.319000000    -1.087000000
O     1.647000000     1.264000000     3.750000000
H     2.311000000     1.902000000     4.012000000
H     2.144000000     0.471000000     3.549000000
O    -1.103000000     5.184000000     2.115000000
H    -0.912000000     4.371000000     2.583000000
H    -1.081000000     4.939000000     1.190000000
O     7.013000000     2.881000000    -3.040000000
H     6.783000000     2.393000000    -3.831000000
H     7.896000000     2.584000000    -2.823000000
O    -0.954000000    -4.970000000    -1.055000000
H    -1.538000000    -4.675000000    -0.357000000
H    -1.513000000    -5.024000000    -1.829000000
O     1.658000000    -6.087000000     1.377000000
H     0.857000000    -5.584000000     1.234000000
H     1.352000000    -6.968000000     1.595000000
O     1.251000000    -4.741000000    -2.588000000
H     2.059000000    -5.145000000    -2.271000000
H     0.617000000    -4.895000000    -1.888000000
O    -5.161000000     1.872000000     1.274000000
H    -5.480000000     2.688000000     1.660000000
H    -4.385000000     1.651000000     1.789000000
O     5.006000000    -0.772000000    -3.988000000
H     4.999000000     0.184000000    -4.023000000
H     4.272000000    -0.997000000    -3.417000000
O    -7.277000000    -1.791000000     0.167000000
H    -8.066000000    -2.299000000     0.355000000
H    -7.138000000    -1.262000000     0.953000000
O    -3.103000000    -0.594000000     6.337000000
H    -4.010000000    -0.800000000     6.109000000
H    -3.173000000     0.011000000     7.075000000
O    -1.687000000     4.413000000    -0.510000000
H    -1.983000000     3.572000000    -0.859000000
H    -1.218000000     4.822000000    -1.237000000
O    -1.106000000     1.981000000    -5.061000000
H    -1.111000000     1.230000000    -4.468000000
H    -0.329000000     2.479000000    -4.811000000
O    -4.616000000    -3.584000000     1.961000000
H    -5.471000000    -3.930000000     1.706000000
H    -4.093000000    -3.626000000     1.160000000
O     4.749000000    -2.509000000     1.794000000
H     5.626000000    -2.862000000     1.940000000
H     4.555000000    -2.720000000     0.880000000
O     2.478000000    -1.173000000     2.666000000
H     1.776000000    -1.197000000     2.016000000
H     3.201000000    -1.647000000     2.255000000
O     2.733000000     3.289000000    -6.148000000
H     3.549000000     3.444000000    -6.623000000
H     2.542000000     2.363000000    -6.294000000
O     4.607000000    -2.335000000    -1.073000000
H     4.839000000    -3.083000000    -1.624000000
H     4.027000000    -1.806000000    -1.621000000
O    -4.713000000    -1.478000000     4.176000000
H    -4.282000000    -0.788000000     3.671000000
H    -4.747000000    -2.225000000     3.578000000
O     0.721000000    -2.201000000    -3.530000000
H     0.824000000    -3.148000000    -3.440000000
H     1.376000000    -1.831000000    -2.938000000
O    -5.218000000     4.675000000     2.674000000
H    -4.912000000     5.576000000     2.570000000
H    -4.929000000     4.424000000     3.552000000
O    -4.493000000     1.956000000     4.133000000
H    -4.914000000     2.064000000     4.986000000
H    -3.563000000     2.099000000     4.304000000
