161
-3065.50393
C     0.470000000     1.307000000    -0.404000000
H     0.830000000     2.293000000    -0.684000000
C    -0.306000000     1.023000000     0.732000000
H    -0.590000000     1.812000000     1.424000000
C    -0.619000000    -0.266000000     1.034000000
C    -1.645000000    -0.513000000     2.156000000
H    -2.637000000    -0.328000000     1.738000000
H    -1.681000000    -1.536000000     2.536000000
H    -1.520000000     0.122000000     3.035000000
C    -0.191000000    -1.265000000     0.204000000
H    -0.494000000    -2.293000000     0.384000000
C     0.579000000    -0.986000000    -0.941000000
H     0.828000000    -1.765000000    -1.656000000
C     0.920000000     0.306000000    -1.231000000
C     1.783000000     0.576000000    -2.408000000
O     2.122000000    -0.215000000    -3.277000000
O     2.155000000     1.734000000    -2.636000000
O    -0.256000000     4.399000000     0.159000000
H    -1.011000000     4.215000000    -0.400000000
H     0.248000000     5.052000000    -0.327000000
O    -3.731000000    -2.803000000    -1.599000000
H    -3.365000000    -3.671000000    -1.769000000
H    -4.243000000    -2.601000000    -2.382000000
O     6.302000000     2.402000000     0.346000000
H     6.765000000     2.899000000    -0.328000000
H     5.383000000     2.439000000     0.084000000
O     0.666000000    -3.328000000     3.256000000
H    -0.224000000    -3.497000000     2.945000000
H     1.226000000    -3.569000000     2.518000000
O     2.807000000     4.798000000    -6.119000000
H     2.187000000     4.943000000    -6.834000000
H     2.441000000     4.060000000    -5.630000000
O    -4.096000000     5.090000000     0.645000000
H    -4.864000000     4.849000000     0.126000000
H    -3.394000000     4.534000000     0.306000000
O     2.736000000     1.505000000    -7.692000000
H     3.401000000     2.029000000    -7.246000000
H     2.762000000     0.657000000    -7.250000000
O     1.389000000     2.865000000    -4.863000000
H     1.635000000     2.263000000    -4.161000000
H     0.880000000     2.329000000    -5.472000000
O    -1.399000000     3.441000000     7.290000000
H    -0.752000000     2.995000000     6.744000000
H    -2.166000000     3.535000000     6.725000000
O     5.279000000    -0.601000000    -5.732000000
H     5.411000000     0.035000000    -5.029000000
H     4.355000000    -0.513000000    -5.964000000
O    -2.632000000     1.731000000    -3.630000000
H    -2.674000000     1.038000000    -2.971000000
H    -1.743000000     1.674000000    -3.982000000
O     1.762000000    -1.234000000     4.455000000
H     1.363000000    -2.011000000     4.063000000
H     1.978000000    -0.674000000     3.709000000
O    -3.904000000     1.637000000    -0.869000000
H    -4.431000000     1.422000000    -0.100000000
H    -3.464000000     0.818000000    -1.096000000
O     3.965000000    -1.979000000    -2.104000000
H     4.829000000    -1.687000000    -2.394000000
H     3.352000000    -1.409000000    -2.568000000
O     0.144000000    -4.094000000    -3.204000000
H     0.628000000    -4.813000000    -3.610000000
H    -0.734000000    -4.447000000    -3.060000000
O    -3.952000000    -0.958000000     5.116000000
H    -4.473000000    -0.629000000     5.848000000
H    -3.594000000    -0.171000000     4.705000000
O    -0.817000000    -2.708000000    -6.885000000
H    -0.589000000    -2.273000000    -6.063000000
H    -0.184000000    -3.421000000    -6.962000000
O     1.150000000     6.485000000    -1.470000000
H     1.680000000     7.140000000    -1.923000000
H     1.232000000     6.709000000    -0.544000000
O    -3.250000000    -3.995000000     1.024000000
H    -2.903000000    -3.150000000     1.308000000
H    -2.551000000    -4.619000000     1.220000000
O    -1.027000000     0.573000000     6.624000000
H    -0.515000000    -0.165000000     6.292000000
H    -1.208000000     1.106000000     5.851000000
O    -2.477000000    -0.313000000    -1.674000000
H    -2.873000000    -1.182000000    -1.607000000
H    -1.559000000    -0.450000000    -1.442000000
O    -6.424000000     2.668000000     0.665000000
H    -6.478000000     2.996000000     1.563000000
H    -6.214000000     1.739000000     0.761000000
O    -0.521000000     1.104000000    -5.177000000
H    -0.136000000     0.325000000    -4.775000000
H    -1.136000000     0.760000000    -5.825000000
O     3.808000000     4.559000000     1.267000000
H     3.329000000     3.942000000     1.822000000
H     3.763000000     4.177000000     0.390000000
O     5.251000000     4.262000000    -3.373000000
H     5.205000000     5.152000000    -3.723000000
H     6.090000000     4.228000000    -2.913000000
O     3.998000000     2.938000000    -1.265000000
H     4.465000000     3.427000000    -1.943000000
H     3.230000000     2.583000000    -1.712000000
O     1.783000000    -3.667000000    -6.600000000
H     1.637000000    -3.756000000    -7.542000000
H     2.735000000    -3.636000000    -6.507000000
O     3.358000000    -2.203000000     0.884000000
H     3.471000000    -1.319000000     1.234000000
H     3.856000000    -2.202000000     0.067000000
O    -2.464000000     3.863000000    -1.711000000
H    -2.261000000     3.746000000    -2.639000000
H    -2.934000000     3.066000000    -1.466000000
O    -5.904000000    -4.225000000     0.228000000
H    -4.977000000    -4.242000000     0.463000000
H    -5.911000000    -4.024000000    -0.707000000
O    -1.619000000     2.276000000     4.556000000
H    -2.393000000     2.814000000     4.724000000
H    -1.103000000     2.788000000     3.933000000
O    -0.037000000    -5.451000000     5.161000000
H     0.525000000    -4.893000000     4.624000000
H    -0.365000000    -4.870000000     5.848000000
O    -2.699000000    -4.953000000    -2.608000000
H    -3.244000000    -4.622000000    -3.322000000
H    -3.127000000    -5.766000000    -2.338000000
O    -0.545000000    -4.992000000     1.219000000
H    -0.427000000    -5.915000000     1.444000000
H     0.126000000    -4.819000000     0.558000000
O    -5.478000000    -2.281000000     2.280000000
H    -5.680000000    -2.797000000     3.060000000
H    -5.869000000    -2.774000000     1.559000000
O     4.363000000     1.906000000    -4.441000000
H     4.701000000     2.765000000    -4.188000000
H     3.680000000     1.717000000    -3.798000000
O     3.903000000    -4.679000000    -1.751000000
H     3.703000000    -3.771000000    -1.977000000
H     3.179000000    -4.951000000    -1.187000000
O    -1.919000000    -3.153000000     5.967000000
H    -2.655000000    -3.763000000     6.012000000
H    -2.307000000    -2.331000000     5.668000000
O    -0.509000000     3.908000000     2.764000000
H    -0.410000000     4.107000000     1.833000000
H    -0.557000000     4.765000000     3.188000000
O     2.138000000     0.095000000     2.106000000
H     2.260000000     1.028000000     2.282000000
H     1.612000000     0.068000000     1.307000000
O     1.882000000     6.370000000     2.081000000
H     1.956000000     6.166000000     3.013000000
H     2.613000000     5.905000000     1.674000000
O     2.078000000    -4.625000000     0.210000000
H     2.791000000    -5.061000000     0.677000000
H     2.169000000    -3.701000000     0.441000000
O     0.017000000    -1.512000000    -4.346000000
H     0.778000000    -1.174000000    -3.875000000
H    -0.108000000    -2.395000000    -3.998000000
O     2.313000000     3.003000000     2.906000000
H     1.386000000     3.139000000     2.710000000
H     2.465000000     3.509000000     3.705000000
O     2.474000000    -0.440000000    -5.898000000
H     1.745000000    -1.004000000    -6.160000000
H     2.406000000    -0.389000000    -4.945000000
O     0.088000000     5.089000000    -3.852000000
H     0.482000000     5.452000000    -3.058000000
H     0.700000000     4.409000000    -4.133000000
O    -5.386000000     0.339000000     1.342000000
H    -5.458000000    -0.589000000     1.564000000
H    -5.103000000     0.759000000     2.155000000
O    -5.260000000     1.452000000     3.764000000
H    -5.180000000     2.390000000     3.936000000
H    -5.586000000     1.085000000     4.586000000
