161
-3051.48947
C     1.299000000     0.593000000    -0.420000000
H     2.132000000     1.261000000    -0.625000000
C     0.638000000     0.936000000     0.784000000
H     1.033000000     1.695000000     1.454000000
C    -0.595000000     0.323000000     1.038000000
C    -1.420000000     0.549000000     2.254000000
H    -2.458000000     0.776000000     2.001000000
H    -1.415000000    -0.397000000     2.799000000
H    -0.882000000     1.291000000     2.847000000
C    -1.113000000    -0.661000000     0.125000000
H    -1.992000000    -1.188000000     0.487000000
C    -0.419000000    -0.965000000    -1.022000000
H    -0.785000000    -1.661000000    -1.772000000
C     0.759000000    -0.297000000    -1.315000000
C     1.503000000    -0.622000000    -2.563000000
O     1.036000000    -1.030000000    -3.602000000
O     2.677000000    -0.603000000    -2.466000000
O     1.133000000     3.434000000    -4.036000000
H     0.658000000     3.158000000    -4.820000000
H     0.451000000     3.561000000    -3.376000000
O    -6.057000000    -2.085000000    -0.333000000
H    -5.169000000    -2.233000000    -0.659000000
H    -6.620000000    -2.258000000    -1.088000000
O     5.965000000     2.747000000    -1.452000000
H     5.793000000     2.670000000    -2.391000000
H     6.843000000     2.382000000    -1.340000000
O     6.773000000    -1.270000000    -2.718000000
H     7.039000000    -2.184000000    -2.819000000
H     7.487000000    -0.767000000    -3.109000000
O     4.883000000    -4.481000000    -4.203000000
H     4.299000000    -3.727000000    -4.119000000
H     5.244000000    -4.408000000    -5.086000000
O     2.082000000     2.725000000     3.829000000
H     2.418000000     1.898000000     3.483000000
H     2.602000000     3.397000000     3.390000000
O    -3.092000000    -3.670000000    -0.119000000
H    -2.154000000    -3.850000000    -0.061000000
H    -3.300000000    -3.212000000     0.695000000
O     1.814000000     0.198000000    -5.875000000
H     1.504000000    -0.368000000    -5.168000000
H     2.529000000     0.699000000    -5.485000000
O     3.102000000    -2.163000000    -7.397000000
H     2.393000000    -2.665000000    -7.798000000
H     2.686000000    -1.695000000    -6.673000000
O     6.418000000    -2.353000000     0.680000000
H     5.863000000    -3.130000000     0.751000000
H     6.028000000    -1.843000000    -0.030000000
O    -1.525000000     0.668000000    -5.514000000
H    -1.500000000     0.559000000    -4.563000000
H    -1.062000000    -0.097000000    -5.855000000
O     1.159000000    -2.255000000     2.536000000
H     0.460000000    -1.616000000     2.398000000
H     1.868000000    -1.751000000     2.938000000
O    -5.132000000     2.382000000     1.561000000
H    -4.425000000     2.079000000     0.991000000
H    -5.340000000     3.259000000     1.240000000
O     3.427000000    -2.290000000    -4.367000000
H     3.968000000    -1.563000000    -4.676000000
H     2.812000000    -1.887000000    -3.753000000
O    -2.043000000    -5.837000000    -3.347000000
H    -1.307000000    -5.246000000    -3.190000000
H    -2.370000000    -5.588000000    -4.211000000
O    -3.343000000    -1.846000000     5.179000000
H    -4.295000000    -1.896000000     5.264000000
H    -3.159000000    -0.910000000     5.090000000
O    -1.213000000     5.142000000     0.073000000
H    -1.005000000     5.016000000     0.999000000
H    -2.122000000     5.440000000     0.069000000
O    -4.723000000    -4.737000000    -1.967000000
H    -4.108000000    -5.030000000    -2.640000000
H    -4.178000000    -4.280000000    -1.326000000
O    -2.144000000     0.656000000     5.672000000
H    -2.249000000     1.417000000     5.101000000
H    -1.347000000     0.838000000     6.170000000
O    -1.815000000     1.291000000    -2.576000000
H    -1.536000000     0.729000000    -1.853000000
H    -1.421000000     2.141000000    -2.384000000
O     4.414000000     4.280000000     0.166000000
H     4.997000000     3.673000000    -0.290000000
H     4.631000000     5.139000000    -0.198000000
O     0.743000000     5.951000000     2.439000000
H     1.265000000     5.361000000     1.895000000
H     0.017000000     5.411000000     2.750000000
O     1.542000000    -5.007000000    -6.149000000
H     0.881000000    -4.849000000    -5.475000000
H     1.112000000    -4.762000000    -6.969000000
O     4.485000000     3.277000000    -4.205000000
H     3.911000000     3.729000000    -3.586000000
H     4.959000000     3.981000000    -4.649000000
O    -0.311000000     3.977000000     5.576000000
H     0.621000000     3.760000000     5.550000000
H    -0.679000000     3.376000000     6.224000000
O    -2.840000000    -1.629000000    -3.018000000
H    -3.406000000    -1.464000000    -3.772000000
H    -2.461000000    -0.774000000    -2.811000000
O     4.137000000     0.543000000    -4.415000000
H     4.004000000     1.450000000    -4.140000000
H     3.602000000     0.028000000    -3.811000000
O     2.852000000    -2.675000000    -0.130000000
H     2.377000000    -2.287000000     0.606000000
H     3.301000000    -1.936000000    -0.541000000
O    -7.230000000     1.103000000     2.679000000
H    -6.956000000     0.186000000     2.688000000
H    -6.425000000     1.593000000     2.511000000
O    -0.297000000     2.776000000    -6.380000000
H    -0.259000000     2.333000000    -7.228000000
H    -0.822000000     2.195000000    -5.829000000
O    -1.412000000     4.499000000     3.227000000
H    -2.342000000     4.570000000     3.443000000
H    -1.033000000     4.009000000     3.957000000
O    -0.967000000     3.854000000    -2.142000000
H    -0.972000000     4.252000000    -1.272000000
H    -1.296000000     4.541000000    -2.722000000
O    -3.808000000    -2.851000000     2.456000000
H    -3.838000000    -3.801000000     2.567000000
H    -3.368000000    -2.532000000     3.243000000
O     6.218000000    -0.455000000    -5.881000000
H     6.998000000    -0.035000000    -5.517000000
H     5.491000000    -0.084000000    -5.382000000
O     0.377000000    -3.754000000    -3.315000000
H     0.819000000    -4.127000000    -2.552000000
H     0.659000000    -2.840000000    -3.332000000
O     4.824000000    -0.502000000    -0.820000000
H     5.485000000    -0.636000000    -1.499000000
H     3.989000000    -0.569000000    -1.284000000
O     1.149000000    -5.017000000     2.780000000
H     0.982000000    -5.346000000     1.896000000
H     1.178000000    -4.066000000     2.680000000
O     6.761000000     2.197000000     1.862000000
H     5.889000000     2.490000000     1.598000000
H     7.080000000     1.691000000     1.114000000
O     1.736000000     4.614000000     0.342000000
H     1.115000000     4.204000000    -0.260000000
H     2.580000000     4.220000000     0.119000000
O    -0.244000000    -1.013000000     7.239000000
H    -0.848000000    -1.297000000     6.553000000
H     0.623000000    -1.239000000     6.902000000
O     3.070000000    -0.862000000     3.416000000
H     3.360000000    -0.339000000     2.669000000
H     3.880000000    -1.165000000     3.824000000
O     1.947000000    -5.107000000    -1.117000000
H     2.715000000    -5.368000000    -1.626000000
H     2.200000000    -4.279000000    -0.710000000
O    -0.994000000    -2.327000000    -5.363000000
H    -0.228000000    -2.216000000    -4.800000000
H    -1.716000000    -2.486000000    -4.756000000
O     4.043000000     0.919000000     1.584000000
H     4.866000000     0.710000000     2.025000000
H     4.094000000     0.454000000     0.749000000
O    -4.201000000     4.116000000     3.832000000
H    -4.440000000     3.220000000     3.592000000
H    -4.740000000     4.667000000     3.265000000
O     0.345000000     0.681000000    -8.157000000
H     0.844000000     0.327000000    -7.420000000
H     1.011000000     0.949000000    -8.790000000
O    -4.467000000     1.976000000    -1.508000000
H    -3.647000000     1.760000000    -1.952000000
H    -5.055000000     2.252000000    -2.211000000
O    -6.308000000    -1.581000000     2.359000000
H    -6.355000000    -1.582000000     1.403000000
H    -5.453000000    -1.963000000     2.557000000
