161
-3076.32007
C     1.494000000     0.197000000    -0.195000000
H     2.556000000     0.427000000    -0.189000000
C     0.556000000     1.235000000    -0.255000000
H     0.829000000     2.283000000    -0.344000000
C    -0.795000000     0.903000000    -0.114000000
C    -1.909000000     1.971000000    -0.105000000
H    -2.835000000     1.597000000     0.338000000
H    -1.489000000     2.699000000     0.592000000
H    -2.253000000     2.299000000    -1.088000000
C    -1.164000000    -0.381000000     0.127000000
H    -2.219000000    -0.582000000     0.295000000
C    -0.287000000    -1.452000000     0.197000000
H    -0.729000000    -2.436000000     0.334000000
C     1.114000000    -1.132000000    -0.004000000
C     2.100000000    -2.236000000     0.124000000
O     1.849000000    -3.243000000     0.756000000
O     3.185000000    -2.157000000    -0.464000000
O     0.432000000     1.480000000    -4.998000000
H     1.054000000     1.915000000    -4.416000000
H     0.336000000     0.600000000    -4.633000000
O    -2.966000000    -4.208000000     0.039000000
H    -2.216000000    -4.775000000     0.220000000
H    -3.454000000    -4.186000000     0.862000000
O     2.160000000     2.229000000    -2.875000000
H     2.917000000     1.870000000    -3.339000000
H     1.922000000     1.551000000    -2.243000000
O    -5.031000000    -1.112000000     2.758000000
H    -4.474000000    -0.344000000     2.888000000
H    -5.644000000    -0.849000000     2.071000000
O     0.272000000     4.610000000     0.882000000
H    -0.096000000     5.019000000     1.666000000
H     0.709000000     3.823000000     1.206000000
O     4.032000000     3.972000000     0.094000000
H     4.930000000     3.648000000     0.018000000
H     3.491000000     3.182000000     0.081000000
O    -3.546000000     6.050000000    -4.714000000
H    -4.494000000     5.946000000    -4.797000000
H    -3.266000000     5.288000000    -4.207000000
O     6.016000000     1.808000000     0.995000000
H     6.807000000     1.855000000     1.532000000
H     5.918000000     0.878000000     0.794000000
O     4.694000000    -4.119000000    -1.408000000
H     4.015000000    -4.774000000    -1.245000000
H     4.294000000    -3.289000000    -1.151000000
O     5.302000000    -0.846000000     0.625000000
H     4.630000000    -1.113000000    -0.002000000
H     5.200000000    -1.453000000     1.358000000
O     4.183000000     2.613000000     3.096000000
H     4.656000000     2.603000000     2.264000000
H     4.868000000     2.687000000     3.760000000
O    -4.252000000     4.747000000     1.218000000
H    -3.585000000     5.387000000     1.464000000
H    -4.694000000     4.533000000     2.040000000
O    -3.761000000     1.296000000     3.330000000
H    -2.990000000     1.675000000     2.907000000
H    -3.494000000     1.166000000     4.240000000
O    -7.855000000     3.238000000    -1.106000000
H    -6.922000000     3.043000000    -1.010000000
H    -7.926000000     4.171000000    -0.906000000
O     3.690000000     6.168000000    -1.441000000
H     4.005000000     5.345000000    -1.066000000
H     2.801000000     6.262000000    -1.098000000
O     2.037000000    -4.826000000    -1.305000000
H     1.794000000    -4.203000000    -1.990000000
H     2.058000000    -4.303000000    -0.503000000
O    -2.069000000    -1.644000000     3.963000000
H    -1.377000000    -2.305000000     3.968000000
H    -2.762000000    -2.027000000     3.425000000
O    -2.139000000    -0.901000000    -5.015000000
H    -1.752000000    -0.956000000    -4.141000000
H    -3.078000000    -1.017000000    -4.869000000
O    -5.774000000     0.407000000     0.313000000
H    -5.514000000     1.216000000    -0.127000000
H    -5.644000000    -0.276000000    -0.345000000
O    -3.152000000     7.142000000     0.084000000
H    -2.573000000     6.442000000    -0.216000000
H    -4.000000000     6.938000000    -0.310000000
O    -5.339000000     2.857000000    -0.743000000
H    -4.868000000     3.060000000     0.066000000
H    -4.694000000     2.998000000    -1.436000000
O     2.288000000    -7.321000000    -0.081000000
H     2.338000000    -6.535000000    -0.626000000
H     1.476000000    -7.749000000    -0.353000000
O    -0.429000000    -5.102000000     0.453000000
H     0.303000000    -4.491000000     0.537000000
H    -0.022000000    -5.933000000     0.210000000
O    -2.842000000     4.228000000    -3.017000000
H    -2.536000000     4.916000000    -2.426000000
H    -2.045000000     3.898000000    -3.433000000
O     4.565000000    -2.574000000     2.801000000
H     3.729000000    -3.036000000     2.736000000
H     5.070000000    -3.081000000     3.438000000
O     5.122000000    -1.571000000    -4.091000000
H     5.234000000    -1.768000000    -5.021000000
H     5.979000000    -1.748000000    -3.704000000
O     2.406000000    -7.512000000     2.743000000
H     2.616000000    -6.578000000     2.745000000
H     2.487000000    -7.775000000     1.827000000
O     4.112000000     1.152000000    -4.412000000
H     3.688000000     1.129000000    -5.270000000
H     4.428000000     0.258000000    -4.278000000
O    -4.467000000    -4.041000000     2.242000000
H    -5.121000000    -4.329000000     2.879000000
H    -4.562000000    -3.089000000     2.216000000
O     0.703000000    -2.236000000     3.312000000
H     0.890000000    -2.729000000     4.111000000
H     1.273000000    -2.628000000     2.650000000
O    -5.772000000    -1.913000000    -1.730000000
H    -6.319000000    -2.108000000    -2.491000000
H    -4.875000000    -2.014000000    -2.049000000
O     0.591000000     0.564000000     2.706000000
H     0.430000000    -0.342000000     2.970000000
H     0.536000000     0.549000000     1.750000000
O    -0.725000000     3.881000000    -4.419000000
H    -0.557000000     2.963000000    -4.632000000
H     0.144000000     4.278000000    -4.366000000
O     3.331000000    -4.955000000     2.274000000
H     4.227000000    -5.095000000     1.967000000
H     2.870000000    -4.604000000     1.512000000
O     1.775000000     3.007000000     2.209000000
H     2.709000000     3.000000000     2.415000000
H     1.475000000     2.124000000     2.425000000
O    -3.101000000    -2.215000000    -1.810000000
H    -2.889000000    -2.794000000    -1.078000000
H    -2.365000000    -2.312000000    -2.414000000
O     1.962000000     4.687000000    -4.456000000
H     2.626000000     5.367000000    -4.337000000
H     2.157000000     4.040000000    -3.778000000
O     2.534000000     6.228000000     1.145000000
H     1.650000000     5.874000000     1.057000000
H     3.093000000     5.589000000     0.703000000
O    -0.491000000    -0.819000000    -2.868000000
H    -0.734000000    -0.494000000    -2.001000000
H     0.417000000    -1.105000000    -2.771000000
O     4.887000000    -4.649000000    -4.723000000
H     3.962000000    -4.447000000    -4.860000000
H     5.037000000    -4.468000000    -3.795000000
O     7.455000000    -3.571000000    -0.583000000
H     7.029000000    -4.032000000     0.140000000
H     6.762000000    -3.455000000    -1.234000000
O     7.076000000     1.424000000    -2.190000000
H     6.568000000     1.906000000    -2.843000000
H     6.732000000     1.725000000    -1.349000000
O    -1.053000000     5.652000000    -1.144000000
H    -0.466000000     5.023000000    -0.724000000
H    -0.469000000     6.302000000    -1.533000000
O     2.367000000    -1.661000000    -3.010000000
H     2.680000000    -1.831000000    -2.121000000
H     3.147000000    -1.381000000    -3.489000000
O    -3.173000000    -6.546000000    -1.500000000
H    -3.139000000    -7.110000000    -0.726000000
H    -3.387000000    -5.679000000    -1.155000000
O    -0.452000000    -3.836000000    -2.504000000
H    -1.133000000    -4.317000000    -2.974000000
H    -0.847000000    -3.627000000    -1.657000000
O    -1.129000000     2.514000000     3.103000000
H    -0.837000000     3.096000000     3.805000000
H    -0.437000000     1.857000000     3.032000000
O     2.115000000    -4.360000000     4.888000000
H     2.629000000    -5.008000000     4.406000000
H     2.617000000    -3.549000000     4.808000000
