161
-3020.72809
C     1.406000000     0.307000000    -0.303000000
H     2.425000000     0.470000000    -0.645000000
C     0.313000000     0.745000000    -1.026000000
H     0.450000000     1.382000000    -1.896000000
C    -0.985000000     0.481000000    -0.558000000
C    -2.141000000     0.940000000    -1.363000000
H    -2.547000000     1.817000000    -0.854000000
H    -1.870000000     1.195000000    -2.389000000
H    -2.904000000     0.174000000    -1.519000000
C    -1.128000000    -0.190000000     0.669000000
H    -2.136000000    -0.366000000     1.035000000
C     0.024000000    -0.733000000     1.279000000
H    -0.089000000    -1.376000000     2.148000000
C     1.272000000    -0.477000000     0.828000000
C     2.373000000    -1.269000000     1.397000000
O     2.082000000    -2.006000000     2.305000000
O     3.456000000    -1.095000000     0.899000000
O    -4.782000000     4.509000000    -5.090000000
H    -4.543000000     3.681000000    -4.675000000
H    -5.364000000     4.258000000    -5.808000000
O    -3.038000000    -1.473000000    -6.441000000
H    -3.411000000    -1.274000000    -5.582000000
H    -2.253000000    -1.986000000    -6.247000000
O    -3.818000000     3.366000000    -2.699000000
H    -3.973000000     2.941000000    -1.855000000
H    -3.242000000     4.102000000    -2.496000000
O     0.508000000    -1.914000000    -3.721000000
H     1.146000000    -2.626000000    -3.677000000
H     0.576000000    -1.479000000    -2.871000000
O     6.246000000    -4.414000000    -0.630000000
H     6.579000000    -5.104000000    -0.056000000
H     5.361000000    -4.242000000    -0.310000000
O    -1.294000000     0.154000000     3.784000000
H    -0.649000000     0.668000000     3.298000000
H    -2.082000000     0.182000000     3.240000000
O    -0.440000000     6.003000000    -2.967000000
H    -0.274000000     5.393000000    -2.248000000
H     0.404000000     6.085000000    -3.411000000
O    -5.651000000     2.650000000    -0.407000000
H    -6.162000000     1.850000000    -0.532000000
H    -6.149000000     3.326000000    -0.866000000
O    -0.440000000     4.996000000     2.338000000
H     0.256000000     5.360000000     2.885000000
H    -0.339000000     4.048000000     2.421000000
O    -0.015000000     2.272000000     5.404000000
H    -0.211000000     3.202000000     5.293000000
H    -0.855000000     1.833000000     5.270000000
O    -0.790000000     4.670000000    -0.475000000
H    -0.492000000     4.775000000     0.429000000
H    -1.681000000     5.019000000    -0.477000000
O     3.938000000    -3.874000000     0.459000000
H     3.591000000    -4.010000000     1.341000000
H     3.708000000    -2.969000000     0.249000000
O    -0.237000000     3.633000000    -5.985000000
H    -0.589000000     4.382000000    -5.504000000
H    -0.540000000     2.869000000    -5.494000000
O     5.668000000     2.036000000    -1.529000000
H     6.552000000     1.896000000    -1.868000000
H     5.327000000     2.767000000    -2.043000000
O     0.301000000    -4.012000000     2.949000000
H     0.935000000    -3.325000000     2.744000000
H    -0.234000000    -3.641000000     3.652000000
O     0.263000000     2.209000000     2.288000000
H     1.172000000     2.376000000     2.540000000
H     0.318000000     1.907000000     1.381000000
O    -3.500000000     5.656000000    -0.790000000
H    -3.918000000     5.697000000    -1.650000000
H    -4.225000000     5.531000000    -0.178000000
O     5.594000000    -4.430000000     3.417000000
H     5.919000000    -5.080000000     4.039000000
H     4.730000000    -4.189000000     3.752000000
O    -5.480000000     1.531000000    -3.680000000
H    -4.898000000     2.203000000    -3.327000000
H    -6.304000000     1.990000000    -3.845000000
O    -7.782000000    -0.158000000    -2.647000000
H    -8.326000000    -0.022000000    -1.871000000
H    -7.185000000     0.590000000    -2.655000000
O     1.020000000    -2.239000000     6.325000000
H     1.010000000    -1.604000000     7.041000000
H     1.583000000    -2.946000000     6.640000000
O    -1.658000000     1.089000000    -5.280000000
H    -1.606000000     1.164000000    -6.233000000
H    -2.571000000     0.858000000    -5.107000000
O    -3.467000000    -1.152000000     5.572000000
H    -3.194000000    -0.242000000     5.455000000
H    -3.125000000    -1.397000000     6.432000000
O    -1.949000000    -4.136000000    -0.006000000
H    -2.357000000    -4.747000000     0.608000000
H    -1.612000000    -4.693000000    -0.708000000
O     5.341000000    -1.513000000     2.712000000
H     5.495000000    -2.458000000     2.706000000
H     4.674000000    -1.375000000     2.039000000
O     0.878000000     0.022000000    -5.309000000
H     0.797000000    -0.739000000    -4.734000000
H     0.042000000     0.480000000    -5.219000000
O     6.535000000    -1.501000000     5.120000000
H     5.853000000    -1.195000000     4.523000000
H     6.476000000    -2.455000000     5.083000000
O     4.992000000    -0.793000000    -1.435000000
H     4.593000000    -0.884000000    -0.570000000
H     5.190000000     0.140000000    -1.510000000
O     3.459000000    -7.115000000     1.189000000
H     3.650000000    -7.145000000     0.252000000
H     2.933000000    -6.324000000     1.302000000
O     2.841000000     2.326000000     3.288000000
H     2.639000000     1.478000000     3.684000000
H     3.495000000     2.127000000     2.617000000
O    -3.575000000    -2.555000000    -1.469000000
H    -3.886000000    -1.918000000    -0.825000000
H    -2.937000000    -3.085000000    -0.993000000
O     1.021000000    -5.142000000     0.491000000
H     0.647000000    -4.753000000    -0.301000000
H     0.663000000    -4.617000000     1.207000000
O    -4.355000000    -0.887000000    -3.954000000
H    -4.816000000    -0.066000000    -3.784000000
H    -4.468000000    -1.396000000    -3.151000000
O     3.384000000    -2.435000000    -2.817000000
H     3.306000000    -1.932000000    -3.628000000
H     4.074000000    -1.990000000    -2.325000000
O     2.290000000    -0.101000000     4.493000000
H     2.012000000    -0.602000000     3.726000000
H     1.558000000    -0.176000000     5.105000000
O     3.447000000    -0.779000000    -4.876000000
H     3.986000000     0.004000000    -4.987000000
H     2.596000000    -0.538000000    -5.244000000
O     4.414000000     1.791000000    -4.773000000
H     3.802000000     2.251000000    -4.199000000
H     4.874000000     2.489000000    -5.240000000
O     3.208000000    -3.572000000     4.463000000
H     2.461000000    -4.164000000     4.553000000
H     2.847000000    -2.791000000     4.044000000
O    -4.433000000     4.373000000     1.615000000
H    -4.108000000     4.146000000     2.486000000
H    -4.688000000     3.535000000     1.228000000
O     4.054000000     4.654000000     1.082000000
H     3.697000000     4.121000000     1.793000000
H     3.284000000     4.991000000     0.625000000
O    -3.880000000    -3.178000000     3.645000000
H    -3.637000000    -2.489000000     4.263000000
H    -3.095000000    -3.721000000     3.570000000
O     7.819000000    -2.995000000     1.410000000
H     7.077000000    -3.273000000     0.873000000
H     8.190000000    -2.249000000     0.938000000
O    -6.831000000    -1.426000000     0.227000000
H    -6.187000000    -1.860000000     0.785000000
H    -7.532000000    -2.070000000     0.123000000
O     4.423000000     1.500000000     1.336000000
H     4.379000000     0.594000000     1.032000000
H     4.398000000     2.023000000     0.534000000
O    -0.167000000    -6.646000000     3.488000000
H    -1.001000000    -6.659000000     3.958000000
H    -0.173000000    -5.814000000     3.014000000
O    -1.076000000    -2.407000000     4.731000000
H    -0.378000000    -2.203000000     5.354000000
H    -1.334000000    -1.557000000     4.374000000
O     6.500000000     1.740000000     3.184000000
H     5.779000000     1.719000000     2.556000000
H     6.150000000     1.311000000     3.965000000
O    -5.417000000    -3.178000000     1.409000000
H    -5.188000000    -3.997000000     0.969000000
H    -4.815000000    -3.128000000     2.152000000
