161
-3040.74541
C     0.469000000     0.311000000     1.367000000
H     0.801000000     0.712000000     2.322000000
C    -0.153000000     1.243000000     0.440000000
H    -0.476000000     2.203000000     0.834000000
C    -0.438000000     0.842000000    -0.831000000
C    -1.267000000     1.786000000    -1.710000000
H    -0.787000000     2.765000000    -1.645000000
H    -1.333000000     1.486000000    -2.757000000
H    -2.254000000     1.828000000    -1.244000000
C    -0.235000000    -0.539000000    -1.179000000
H    -0.599000000    -0.852000000    -2.154000000
C     0.298000000    -1.443000000    -0.318000000
H     0.353000000    -2.502000000    -0.557000000
C     0.747000000    -1.021000000     0.972000000
C     1.440000000    -2.030000000     1.903000000
O     1.431000000    -3.215000000     1.686000000
O     2.006000000    -1.581000000     2.874000000
O    -0.060000000     5.652000000     0.756000000
H    -0.119000000     5.439000000    -0.176000000
H    -0.338000000     6.566000000     0.810000000
O     3.260000000    -4.859000000     0.134000000
H     2.807000000    -4.382000000     0.829000000
H     2.889000000    -4.511000000    -0.677000000
O    -3.841000000     2.763000000     3.017000000
H    -3.839000000     2.240000000     2.215000000
H    -3.119000000     3.381000000     2.900000000
O    -1.761000000     1.994000000    -6.213000000
H    -1.003000000     2.535000000    -5.993000000
H    -2.114000000     2.389000000    -7.011000000
O    -5.008000000     4.723000000    -2.972000000
H    -4.724000000     4.867000000    -2.070000000
H    -4.195000000     4.589000000    -3.460000000
O     0.796000000    -5.950000000     1.783000000
H     0.911000000    -5.011000000     1.636000000
H     0.360000000    -6.007000000     2.634000000
O     4.757000000    -1.818000000    -2.075000000
H     3.885000000    -2.200000000    -1.974000000
H     5.102000000    -1.770000000    -1.183000000
O    -4.118000000     1.083000000     0.979000000
H    -3.470000000     0.399000000     1.149000000
H    -4.341000000     0.975000000     0.054000000
O    -3.575000000     5.181000000    -0.649000000
H    -2.677000000     5.466000000    -0.480000000
H    -4.116000000     5.770000000    -0.124000000
O     6.077000000     2.251000000     2.242000000
H     5.346000000     1.638000000     2.317000000
H     6.326000000     2.217000000     1.318000000
O    -3.950000000     0.912000000    -4.435000000
H    -3.148000000     1.269000000    -4.817000000
H    -4.657000000     1.326000000    -4.930000000
O     0.569000000    -4.012000000     4.353000000
H    -0.031000000    -3.417000000     4.802000000
H     0.903000000    -3.503000000     3.615000000
O    -2.176000000     4.867000000    -4.390000000
H    -1.451000000     4.281000000    -4.607000000
H    -2.835000000     4.691000000    -5.062000000
O     0.691000000     6.010000000    -4.743000000
H     1.413000000     6.136000000    -4.127000000
H     0.245000000     6.856000000    -4.766000000
O     2.807000000     2.933000000     0.832000000
H     3.115000000     2.201000000     1.366000000
H     2.835000000     3.687000000     1.420000000
O     1.038000000    -7.188000000    -0.952000000
H     0.996000000    -6.875000000    -0.049000000
H     0.437000000    -6.617000000    -1.432000000
O    -1.778000000    -2.503000000     4.533000000
H    -1.848000000    -1.572000000     4.744000000
H    -2.661000000    -2.847000000     4.669000000
O    -2.506000000    -1.014000000     1.031000000
H    -2.331000000    -1.887000000     1.382000000
H    -1.639000000    -0.649000000     0.852000000
O     3.325000000    -7.361000000     2.077000000
H     2.672000000    -6.676000000     1.934000000
H     2.824000000    -8.102000000     2.419000000
O     2.310000000     4.857000000     2.826000000
H     2.016000000     5.347000000     3.593000000
H     1.501000000     4.579000000     2.395000000
O    -4.393000000    -1.855000000    -4.302000000
H    -5.328000000    -1.778000000    -4.494000000
H    -4.037000000    -0.989000000    -4.500000000
O    -1.263000000     4.972000000     2.977000000
H    -0.802000000     5.198000000     2.170000000
H    -2.068000000     5.490000000     2.946000000
O    -2.518000000     0.669000000     4.636000000
H    -2.987000000     1.349000000     4.153000000
H    -1.594000000     0.893000000     4.527000000
O    -0.792000000    -5.683000000    -2.453000000
H    -1.228000000    -5.958000000    -3.260000000
H    -0.496000000    -4.791000000    -2.633000000
O    -1.006000000    -3.035000000    -6.646000000
H    -1.607000000    -3.334000000    -5.964000000
H    -0.420000000    -2.425000000    -6.198000000
O     5.249000000    -2.744000000     5.900000000
H     5.143000000    -2.750000000     4.949000000
H     4.509000000    -2.228000000     6.221000000
O     1.270000000    -5.810000000     6.360000000
H     1.087000000    -5.498000000     5.473000000
H     1.928000000    -5.202000000     6.696000000
O     0.883000000    -1.256000000     6.915000000
H     0.497000000    -2.084000000     7.200000000
H     0.653000000    -0.635000000     7.606000000
O    -2.211000000    -6.461000000     2.198000000
H    -1.933000000    -5.988000000     1.414000000
H    -2.667000000    -7.233000000     1.863000000
O    -1.747000000    -3.432000000     1.791000000
H    -0.841000000    -3.652000000     2.009000000
H    -2.174000000    -3.308000000     2.638000000
O    -2.395000000    -3.386000000    -4.185000000
H    -2.883000000    -4.176000000    -3.951000000
H    -3.051000000    -2.689000000    -4.182000000
O     2.497000000     1.285000000    -1.529000000
H     1.886000000     0.696000000    -1.088000000
H     2.467000000     2.091000000    -1.014000000
O     4.751000000    -2.687000000     3.207000000
H     4.873000000    -3.516000000     2.745000000
H     3.814000000    -2.507000000     3.132000000
O    -0.427000000     4.845000000     5.709000000
H     0.267000000     5.489000000     5.565000000
H    -0.779000000     4.673000000     4.836000000
O     2.912000000    -1.265000000     5.291000000
H     2.159000000    -1.458000000     5.849000000
H     2.553000000    -1.246000000     4.404000000
O     0.004000000    -3.074000000    -3.305000000
H    -0.930000000    -3.086000000    -3.512000000
H     0.321000000    -2.252000000    -3.678000000
O    -2.808000000    -6.444000000    -0.485000000
H    -2.869000000    -7.399000000    -0.455000000
H    -2.353000000    -6.259000000    -1.306000000
O     2.521000000    -3.686000000    -2.315000000
H     1.616000000    -3.502000000    -2.566000000
H     2.834000000    -4.300000000    -2.979000000
O    -6.356000000     2.347000000    -1.849000000
H    -5.621000000     1.736000000    -1.894000000
H    -5.981000000     3.192000000    -2.097000000
O    -0.018000000    -0.857000000    -5.184000000
H    -0.583000000    -0.274000000    -5.691000000
H     0.800000000    -0.370000000    -5.084000000
O     2.652000000     2.461000000     4.804000000
H     3.197000000     2.298000000     5.573000000
H     3.043000000     3.232000000     4.392000000
O     6.947000000    -0.965000000     2.105000000
H     6.024000000    -1.064000000     2.338000000
H     7.411000000    -0.999000000     2.941000000
O    -4.320000000     0.338000000    -1.736000000
H    -4.207000000    -0.548000000    -1.392000000
H    -4.150000000     0.253000000    -2.675000000
O     0.334000000     3.456000000    -5.486000000
H     0.636000000     4.349000000    -5.319000000
H     1.020000000     2.898000000    -5.122000000
O     2.044000000     1.197000000    -4.559000000
H     2.185000000     1.365000000    -3.628000000
H     2.687000000     0.524000000    -4.782000000
O    -0.522000000     5.846000000    -1.780000000
H     0.402000000     5.869000000    -2.028000000
H    -0.982000000     5.623000000    -2.589000000
O     3.450000000     0.674000000     2.658000000
H     2.897000000    -0.106000000     2.609000000
H     2.985000000     1.261000000     3.254000000
O     0.237000000     0.802000000     4.940000000
H     0.624000000     0.006000000     5.305000000
H     0.914000000     1.470000000     5.051000000
