161
-3050.83636
C     0.880000000     1.196000000    -0.130000000
H     1.573000000     2.034000000    -0.156000000
C    -0.325000000     1.197000000     0.540000000
H    -0.713000000     2.058000000     1.079000000
C    -1.130000000     0.045000000     0.543000000
C    -2.493000000    -0.017000000     1.241000000
H    -3.056000000     0.799000000     0.782000000
H    -3.029000000    -0.946000000     1.037000000
H    -2.370000000     0.117000000     2.318000000
C    -0.704000000    -1.097000000    -0.155000000
H    -1.155000000    -2.074000000     0.003000000
C     0.624000000    -1.132000000    -0.707000000
H     0.996000000    -2.083000000    -1.079000000
C     1.427000000     0.006000000    -0.739000000
C     2.790000000    -0.023000000    -1.354000000
O     3.136000000    -0.957000000    -2.061000000
O     3.553000000     0.874000000    -1.159000000
O     4.767000000    -0.920000000    -4.062000000
H     4.223000000    -0.961000000    -3.276000000
H     4.688000000    -0.014000000    -4.361000000
O    -4.613000000    -0.210000000     3.766000000
H    -4.795000000     0.729000000     3.741000000
H    -5.271000000    -0.565000000     4.364000000
O    -2.621000000    -1.639000000    -3.174000000
H    -2.383000000    -1.712000000    -2.249000000
H    -3.475000000    -2.066000000    -3.236000000
O     5.646000000    -4.136000000    -1.006000000
H     6.564000000    -4.349000000    -0.833000000
H     5.675000000    -3.543000000    -1.757000000
O     6.962000000     1.326000000    -3.662000000
H     6.768000000     0.770000000    -2.908000000
H     6.108000000     1.654000000    -3.944000000
O     0.238000000     4.486000000     1.768000000
H    -0.681000000     4.451000000     1.503000000
H     0.507000000     5.386000000     1.582000000
O     0.602000000    -5.717000000     2.568000000
H    -0.034000000    -6.259000000     2.100000000
H     0.375000000    -4.819000000     2.326000000
O     2.910000000    -3.380000000    -0.140000000
H     3.786000000    -3.677000000    -0.386000000
H     2.855000000    -2.487000000    -0.480000000
O    -1.530000000    -5.980000000     0.279000000
H    -1.814000000    -5.135000000    -0.068000000
H    -1.240000000    -6.470000000    -0.491000000
O    -7.219000000    -3.766000000     1.718000000
H    -6.265000000    -3.775000000     1.649000000
H    -7.519000000    -4.281000000     0.969000000
O     0.010000000     1.485000000     5.514000000
H     0.562000000     1.739000000     4.774000000
H    -0.741000000     2.077000000     5.467000000
O     1.527000000     1.981000000    -6.003000000
H     1.205000000     1.670000000    -5.157000000
H     2.050000000     2.755000000    -5.791000000
O     2.539000000     4.254000000     0.033000000
H     1.717000000     4.359000000     0.510000000
H     2.885000000     5.142000000    -0.049000000
O    -4.070000000     4.028000000     1.166000000
H    -3.313000000     4.456000000     0.768000000
H    -4.749000000     4.703000000     1.177000000
O     2.860000000    -6.577000000     0.613000000
H     1.987000000    -6.544000000     1.005000000
H     2.965000000    -5.725000000     0.191000000
O    -6.038000000    -0.058000000     1.433000000
H    -5.987000000     0.834000000     1.090000000
H    -5.261000000    -0.147000000     1.985000000
O    -6.321000000    -1.862000000    -0.805000000
H    -6.355000000    -1.600000000     0.114000000
H    -7.150000000    -1.556000000    -1.173000000
O    -2.622000000    -4.151000000    -1.685000000
H    -2.114000000    -4.385000000    -2.462000000
H    -3.514000000    -4.029000000    -2.009000000
O    -0.887000000     0.355000000    -3.441000000
H    -0.021000000     0.044000000    -3.702000000
H    -1.422000000    -0.438000000    -3.393000000
O     3.704000000     3.456000000    -2.248000000
H     3.832000000     2.517000000    -2.112000000
H     3.339000000     3.771000000    -1.422000000
O     0.786000000    -3.312000000     1.445000000
H     1.405000000    -3.582000000     0.766000000
H     0.349000000    -2.544000000     1.078000000
O     2.854000000    -1.638000000    -6.426000000
H     2.402000000    -1.601000000    -7.268000000
H     3.226000000    -2.520000000    -6.392000000
O    -5.437000000     0.950000000    -2.552000000
H    -5.154000000     1.202000000    -3.431000000
H    -5.256000000     0.011000000    -2.502000000
O     6.767000000     3.779000000    -2.240000000
H     6.989000000     2.988000000    -2.731000000
H     5.811000000     3.768000000    -2.188000000
O    -1.815000000     5.093000000    -0.189000000
H    -1.781000000     4.587000000    -1.001000000
H    -2.173000000     5.941000000    -0.450000000
O     6.204000000    -2.321000000     1.534000000
H     6.153000000    -3.058000000     2.142000000
H     5.990000000    -2.698000000     0.681000000
O     7.030000000     3.337000000     0.403000000
H     7.053000000     3.561000000    -0.528000000
H     7.148000000     2.388000000     0.424000000
O     3.409000000    -3.863000000     3.039000000
H     2.754000000    -3.636000000     3.700000000
H     2.986000000    -3.663000000     2.204000000
O     1.539000000    -0.840000000    -4.095000000
H     2.194000000    -1.093000000    -3.444000000
H     1.963000000    -1.008000000    -4.937000000
O    -3.696000000    -2.700000000     3.021000000
H    -3.736000000    -1.751000000     3.140000000
H    -2.791000000    -2.930000000     3.234000000
O     4.536000000     1.393000000     1.220000000
H     4.235000000     1.464000000     0.314000000
H     5.448000000     1.113000000     1.148000000
O    -5.052000000    -2.903000000    -2.773000000
H    -5.701000000    -3.386000000    -3.286000000
H    -5.541000000    -2.570000000    -2.021000000
O    -5.501000000    -3.917000000     4.670000000
H    -4.720000000    -3.671000000     4.175000000
H    -6.148000000    -3.248000000     4.445000000
O     0.561000000     5.757000000    -2.483000000
H     0.134000000     4.932000000    -2.249000000
H     1.442000000     5.502000000    -2.755000000
O    -5.100000000     2.641000000     3.175000000
H    -5.312000000     3.350000000     3.782000000
H    -4.597000000     3.065000000     2.479000000
O     0.331000000    -3.765000000    -4.657000000
H    -0.387000000    -3.279000000    -5.060000000
H     0.844000000    -3.099000000    -4.199000000
O    -2.177000000     3.747000000     4.739000000
H    -1.878000000     4.478000000     4.198000000
H    -3.120000000     3.886000000     4.827000000
O     6.047000000    -0.293000000    -1.537000000
H     6.269000000    -0.232000000    -0.607000000
H     5.103000000    -0.139000000    -1.568000000
O     3.902000000     2.111000000     3.745000000
H     3.131000000     2.660000000     3.890000000
H     3.824000000     1.825000000     2.835000000
O     7.012000000     0.362000000     1.052000000
H     6.965000000    -0.582000000     1.204000000
H     7.944000000     0.538000000     0.927000000
O    -0.707000000     3.075000000    -2.102000000
H    -0.638000000     2.309000000    -2.672000000
H    -0.978000000     2.720000000    -1.256000000
O     5.562000000    -2.730000000    -5.789000000
H     5.712000000    -2.172000000    -6.552000000
H     4.996000000    -2.210000000    -5.219000000
O     1.437000000     3.380000000     4.048000000
H     1.240000000     4.178000000     4.539000000
H     0.978000000     3.491000000     3.215000000
O    -1.016000000    -3.023000000     3.779000000
H    -0.491000000    -2.631000000     4.477000000
H    -0.497000000    -2.891000000     2.986000000
O     4.586000000     1.573000000    -4.827000000
H     4.181000000     2.424000000    -4.998000000
H     4.954000000     1.309000000    -5.670000000
O    -6.199000000     2.143000000    -0.206000000
H    -5.516000000     2.747000000     0.084000000
H    -5.912000000     1.855000000    -1.073000000
O     7.012000000    -2.346000000    -3.006000000
H     6.592000000    -1.657000000    -2.491000000
H     6.412000000    -2.499000000    -3.735000000
O     3.445000000     3.899000000    -4.956000000
H     3.760000000     4.057000000    -4.066000000
H     3.867000000     4.576000000    -5.483000000
