161
-3018.88982
C     0.764000000     1.266000000     0.170000000
H     1.202000000     2.260000000     0.211000000
C     0.092000000     0.826000000    -0.969000000
H     0.063000000     1.487000000    -1.832000000
C    -0.522000000    -0.404000000    -1.081000000
C    -1.115000000    -0.762000000    -2.353000000
H    -2.023000000    -1.334000000    -2.151000000
H    -1.401000000     0.072000000    -2.998000000
H    -0.415000000    -1.409000000    -2.887000000
C    -0.610000000    -1.199000000     0.062000000
H    -1.153000000    -2.140000000     0.034000000
C    -0.084000000    -0.761000000     1.290000000
H    -0.124000000    -1.302000000     2.232000000
C     0.731000000     0.420000000     1.304000000
C     1.298000000     0.912000000     2.630000000
O     1.170000000     0.211000000     3.582000000
O     2.131000000     1.860000000     2.761000000
O    -3.845000000     0.844000000     3.062000000
H    -3.044000000     0.927000000     2.545000000
H    -3.642000000     0.172000000     3.713000000
O     1.595000000     3.538000000     5.867000000
H     1.614000000     3.299000000     4.940000000
H     1.115000000     2.826000000     6.289000000
O     2.003000000    -3.011000000     0.257000000
H     1.337000000    -2.352000000     0.453000000
H     2.787000000    -2.503000000     0.045000000
O    -4.106000000    -0.877000000     5.213000000
H    -4.268000000    -1.817000000     5.300000000
H    -3.153000000    -0.802000000     5.166000000
O     1.120000000     4.272000000     2.005000000
H     1.529000000     3.483000000     2.362000000
H     0.184000000     4.151000000     2.168000000
O     3.484000000     1.806000000     7.789000000
H     3.896000000     2.670000000     7.765000000
H     3.482000000     1.518000000     6.876000000
O     1.143000000    -4.937000000     2.183000000
H     1.375000000    -4.342000000     1.469000000
H     1.024000000    -4.365000000     2.942000000
O     4.452000000    -1.636000000    -0.504000000
H     5.376000000    -1.506000000    -0.718000000
H     3.988000000    -1.005000000    -1.053000000
O    -0.968000000     3.166000000     3.529000000
H    -1.845000000     3.426000000     3.246000000
H    -1.109000000     2.721000000     4.365000000
O     2.966000000     5.028000000    -0.464000000
H     2.410000000     4.638000000     0.210000000
H     3.742000000     4.469000000    -0.488000000
O    -3.823000000    -0.715000000    -6.616000000
H    -3.556000000     0.114000000    -7.013000000
H    -4.689000000    -0.889000000    -6.986000000
O     1.023000000    -2.540000000     3.992000000
H     1.873000000    -2.759000000     4.375000000
H     0.964000000    -1.588000000     4.069000000
O    -3.671000000    -3.362000000     5.591000000
H    -4.339000000    -3.883000000     5.145000000
H    -2.911000000    -3.401000000     5.010000000
O    -3.862000000     1.397000000    -1.954000000
H    -4.065000000     0.750000000    -2.630000000
H    -2.996000000     1.145000000    -1.633000000
O     5.324000000     3.340000000    -0.065000000
H     6.061000000     3.900000000     0.179000000
H     5.699000000     2.702000000    -0.672000000
O    -1.654000000     3.082000000    -5.894000000
H    -1.515000000     3.721000000    -6.593000000
H    -1.008000000     2.397000000    -6.064000000
O    -4.034000000    -1.146000000     0.129000000
H    -4.404000000    -1.864000000    -0.384000000
H    -3.284000000    -1.534000000     0.580000000
O    -4.505000000    -4.523000000     1.865000000
H    -5.067000000    -4.056000000     1.248000000
H    -3.736000000    -3.961000000     1.962000000
O    -1.349000000    -2.927000000    -6.538000000
H    -2.063000000    -2.328000000    -6.318000000
H    -1.642000000    -3.778000000    -6.211000000
O     1.596000000     7.492000000     0.813000000
H     2.170000000     7.265000000     0.082000000
H     1.667000000     6.749000000     1.413000000
O     0.980000000     1.738000000    -5.549000000
H     1.148000000     2.073000000    -4.668000000
H     1.624000000     2.182000000    -6.100000000
O    -3.386000000    -5.455000000    -1.351000000
H    -2.806000000    -5.621000000    -0.608000000
H    -3.812000000    -6.296000000    -1.514000000
O    -1.621000000     1.999000000     5.963000000
H    -1.575000000     2.827000000     6.441000000
H    -0.801000000     1.554000000     6.175000000
O     2.018000000    -4.456000000    -5.041000000
H     1.475000000    -4.218000000    -4.290000000
H     2.615000000    -3.716000000    -5.149000000
O    -2.121000000    -3.368000000     1.938000000
H    -2.004000000    -4.218000000     1.515000000
H    -1.671000000    -3.455000000     2.779000000
O     6.799000000     0.731000000     3.513000000
H     7.506000000     0.851000000     2.879000000
H     6.021000000     1.073000000     3.072000000
O     3.903000000    -2.599000000     4.222000000
H     4.116000000    -2.188000000     3.384000000
H     4.724000000    -2.998000000     4.509000000
O     1.376000000    -1.686000000     6.950000000
H     1.122000000    -2.555000000     6.641000000
H     2.217000000    -1.823000000     7.386000000
O    -5.140000000    -3.429000000    -1.144000000
H    -5.643000000    -3.721000000    -1.904000000
H    -4.434000000    -4.071000000    -1.062000000
O    -2.063000000    -5.826000000     1.197000000
H    -1.357000000    -6.472000000     1.185000000
H    -2.820000000    -6.305000000     1.536000000
O    -1.609000000    -0.160000000     4.406000000
H    -0.674000000    -0.334000000     4.296000000
H    -1.645000000     0.700000000     4.824000000
O     3.230000000     0.340000000    -2.067000000
H     2.574000000     0.581000000    -1.413000000
H     3.244000000     1.079000000    -2.676000000
O     4.986000000    -1.418000000     2.084000000
H     4.948000000    -1.402000000     1.128000000
H     5.916000000    -1.322000000     2.288000000
O     3.958000000     0.875000000     5.279000000
H     4.367000000     1.415000000     4.603000000
H     3.440000000     0.234000000     4.793000000
O     1.195000000    -0.937000000    -5.478000000
H     1.015000000     0.002000000    -5.435000000
H     0.359000000    -1.351000000    -5.264000000
O    -0.823000000    -4.597000000    -3.168000000
H    -1.177000000    -4.889000000    -4.008000000
H    -1.587000000    -4.534000000    -2.594000000
O    -3.979000000     4.060000000    -2.801000000
H    -3.675000000     3.157000000    -2.887000000
H    -3.378000000     4.456000000    -2.170000000
O     3.446000000    -2.040000000    -4.928000000
H     2.539000000    -1.732000000    -4.926000000
H     3.948000000    -1.308000000    -4.568000000
O     2.636000000     6.401000000     3.391000000
H     2.368000000     5.489000000     3.277000000
H     3.455000000     6.473000000     2.900000000
O    -4.224000000    -0.573000000    -3.597000000
H    -4.109000000    -1.458000000    -3.250000000
H    -3.916000000    -0.629000000    -4.502000000
O     1.658000000    -4.477000000    -2.180000000
H     1.588000000    -4.019000000    -1.342000000
H     0.752000000    -4.666000000    -2.426000000
O     0.287000000     4.037000000    -3.909000000
H     0.537000000     4.822000000    -4.396000000
H    -0.595000000     3.832000000    -4.221000000
O     6.198000000     4.320000000     3.663000000
H     5.475000000     4.628000000     3.116000000
H     6.394000000     3.445000000     3.330000000
O     4.726000000     2.105000000     2.451000000
H     3.834000000     2.305000000     2.735000000
H     4.768000000     2.426000000     1.550000000
O     0.488000000     5.716000000    -1.441000000
H     0.225000000     5.158000000    -2.174000000
H     1.377000000     5.432000000    -1.231000000
O     0.729000000     0.799000000     6.175000000
H     0.883000000     0.642000000     5.243000000
H     1.080000000     0.022000000     6.610000000
O    -1.280000000    -3.711000000     4.523000000
H    -1.026000000    -4.347000000     5.192000000
H    -0.465000000    -3.260000000     4.300000000
O     2.896000000     2.936000000    -3.280000000
H     3.409000000     3.476000000    -3.881000000
H     2.058000000     3.394000000    -3.202000000
