161
-3014.65061
C     0.952000000     0.726000000     0.825000000
H     1.572000000     1.416000000     1.391000000
C     0.565000000     1.019000000    -0.503000000
H     0.903000000     1.923000000    -1.004000000
C    -0.366000000     0.270000000    -1.147000000
C    -0.771000000     0.766000000    -2.496000000
H    -0.454000000     1.801000000    -2.641000000
H    -0.248000000     0.175000000    -3.251000000
H    -1.853000000     0.809000000    -2.635000000
C    -0.836000000    -0.894000000    -0.525000000
H    -1.539000000    -1.447000000    -1.144000000
C    -0.450000000    -1.279000000     0.742000000
H    -0.803000000    -2.222000000     1.150000000
C     0.478000000    -0.415000000     1.493000000
C     0.801000000    -0.802000000     2.849000000
O     0.361000000    -1.755000000     3.433000000
O     1.684000000    -0.091000000     3.466000000
O     0.063000000     4.707000000     0.586000000
H     1.020000000     4.668000000     0.574000000
H    -0.195000000     4.532000000    -0.319000000
O     2.620000000    -3.561000000     0.500000000
H     1.919000000    -3.965000000     1.011000000
H     2.229000000    -3.399000000    -0.358000000
O    -3.249000000    -3.751000000     4.362000000
H    -3.300000000    -3.591000000     5.304000000
H    -2.778000000    -2.993000000     4.015000000
O    -3.269000000     2.561000000     3.549000000
H    -2.942000000     1.878000000     2.963000000
H    -2.812000000     3.355000000     3.271000000
O    -1.927000000     1.586000000    -5.501000000
H    -1.639000000     2.305000000    -6.063000000
H    -1.129000000     1.091000000    -5.317000000
O    -6.255000000     2.763000000    -0.908000000
H    -6.365000000     1.895000000    -0.519000000
H    -5.309000000     2.859000000    -1.015000000
O    -1.311000000     5.004000000    -5.703000000
H    -1.386000000     4.369000000    -6.415000000
H    -1.201000000     5.847000000    -6.145000000
O     0.783000000    -4.302000000     2.474000000
H     0.670000000    -3.416000000     2.818000000
H    -0.053000000    -4.736000000     2.650000000
O    -3.177000000     1.015000000     0.805000000
H    -2.487000000     0.456000000     0.449000000
H    -3.074000000     1.847000000     0.343000000
O    -3.602000000     3.157000000    -0.940000000
H    -3.535000000     2.946000000    -1.871000000
H    -3.284000000     4.058000000    -0.875000000
O     4.752000000     3.138000000     2.492000000
H     5.513000000     3.718000000     2.534000000
H     5.076000000     2.351000000     2.053000000
O    -4.209000000    -0.095000000    -5.345000000
H    -3.446000000     0.438000000    -5.565000000
H    -4.432000000    -0.543000000    -6.161000000
O     0.553000000    -3.263000000     6.048000000
H     0.218000000    -3.019000000     6.911000000
H     0.172000000    -2.618000000     5.452000000
O    -3.755000000     2.943000000    -3.696000000
H    -3.348000000     2.462000000    -4.416000000
H    -3.177000000     3.693000000    -3.553000000
O     0.547000000     3.580000000    -4.458000000
H    -0.029000000     4.049000000    -5.062000000
H     0.918000000     2.871000000    -4.982000000
O     3.104000000     3.952000000     0.656000000
H     3.717000000     4.687000000     0.650000000
H     3.260000000     3.517000000     1.494000000
O    -1.819000000    -1.207000000     6.238000000
H    -1.020000000    -0.747000000     5.981000000
H    -2.438000000    -1.024000000     5.531000000
O    -3.405000000    -2.322000000     0.794000000
H    -3.942000000    -3.013000000     1.181000000
H    -3.337000000    -2.560000000    -0.131000000
O     1.872000000    -6.766000000     2.550000000
H     1.552000000    -6.031000000     2.027000000
H     1.807000000    -7.522000000     1.966000000
O    -1.930000000     4.763000000     2.526000000
H    -1.261000000     4.642000000     1.852000000
H    -2.390000000     5.562000000     2.266000000
O     0.876000000     4.873000000    -1.919000000
H     0.820000000     4.248000000    -2.642000000
H     1.690000000     5.351000000    -2.079000000
O    -2.672000000     1.751000000     6.006000000
H    -2.646000000     2.254000000     5.193000000
H    -1.797000000     1.371000000     6.081000000
O    -4.187000000    -4.592000000     1.869000000
H    -3.826000000    -5.477000000     1.930000000
H    -3.974000000    -4.188000000     2.710000000
O     5.361000000    -0.284000000     5.734000000
H     5.422000000     0.151000000     4.883000000
H     4.472000000    -0.636000000     5.760000000
O     1.736000000    -5.969000000     5.305000000
H     1.646000000    -5.024000000     5.425000000
H     1.548000000    -6.112000000     4.377000000
O    -3.753000000    -2.604000000    -2.380000000
H    -4.290000000    -3.395000000    -2.339000000
H    -3.214000000    -2.721000000    -3.163000000
O    -1.867000000    -5.850000000     3.173000000
H    -1.206000000    -6.222000000     3.758000000
H    -2.389000000    -5.278000000     3.734000000
O    -2.394000000    -1.170000000     3.583000000
H    -1.450000000    -1.044000000     3.481000000
H    -2.746000000    -1.067000000     2.699000000
O     4.029000000    -0.146000000    -0.220000000
H     3.107000000     0.107000000    -0.181000000
H     4.494000000     0.672000000    -0.399000000
O     3.633000000    -2.794000000     3.152000000
H     3.554000000    -3.124000000     2.257000000
H     2.750000000    -2.502000000     3.379000000
O    -6.594000000     0.137000000    -0.370000000
H    -5.953000000     0.216000000    -1.076000000
H    -6.993000000    -0.723000000    -0.503000000
O     2.833000000    -1.122000000     5.928000000
H     1.989000000    -1.358000000     6.312000000
H     2.643000000    -0.978000000     5.001000000
O     0.145000000    -4.564000000    -4.047000000
H    -0.791000000    -4.473000000    -4.227000000
H     0.378000000    -5.417000000    -4.413000000
O    -1.405000000    -6.461000000     0.472000000
H    -1.446000000    -6.556000000     1.424000000
H    -0.487000000    -6.264000000     0.290000000
O     1.847000000    -3.439000000    -1.964000000
H     1.162000000    -3.410000000    -2.632000000
H     2.549000000    -3.954000000    -2.364000000
O     0.735000000    -3.285000000    -6.616000000
H     0.367000000    -3.425000000    -5.743000000
H     1.470000000    -2.688000000    -6.473000000
O     1.406000000     3.110000000     6.686000000
H     0.898000000     3.030000000     7.493000000
H     1.449000000     4.052000000     6.522000000
O     5.851000000    -1.120000000     1.804000000
H     5.213000000    -0.912000000     1.121000000
H     5.325000000    -1.233000000     2.596000000
O    -4.490000000    -0.070000000    -2.544000000
H    -4.195000000    -0.960000000    -2.351000000
H    -4.371000000     0.022000000    -3.489000000
O     0.609000000     0.983000000    -6.805000000
H     0.901000000     0.174000000    -7.226000000
H     1.406000000     1.505000000    -6.713000000
O     3.170000000     2.477000000    -5.489000000
H     3.572000000     2.747000000    -4.663000000
H     3.370000000     1.544000000    -5.559000000
O    -1.719000000     4.656000000    -3.040000000
H    -0.977000000     4.717000000    -2.439000000
H    -1.320000000     4.608000000    -3.909000000
O     3.653000000     1.495000000     7.903000000
H     3.267000000     1.495000000     7.027000000
H     4.576000000     1.701000000     7.759000000
O     4.110000000     0.783000000     3.320000000
H     3.316000000     0.248000000     3.311000000
H     3.792000000     1.684000000     3.264000000
O     0.186000000     1.048000000     5.546000000
H     0.828000000     0.731000000     4.911000000
H     0.641000000     1.747000000     6.016000000
O     3.572000000     0.293000000    -3.383000000
H     2.923000000    -0.222000000    -2.904000000
H     3.994000000     0.829000000    -2.712000000
O     4.648000000     2.294000000    -1.269000000
H     5.483000000     2.647000000    -1.577000000
H     4.202000000     3.042000000    -0.872000000
O    -6.169000000     1.866000000    -3.884000000
H    -5.349000000     2.311000000    -3.671000000
H    -6.218000000     1.143000000    -3.258000000
