161
-3065.32637
C     0.563000000     0.428000000     1.275000000
H     1.189000000     0.906000000     2.024000000
C     0.768000000     1.057000000     0.069000000
H     1.377000000     1.956000000     0.024000000
C     0.104000000     0.520000000    -1.104000000
C     0.244000000     1.314000000    -2.391000000
H     0.900000000     0.708000000    -3.020000000
H    -0.718000000     1.358000000    -2.907000000
H     0.483000000     2.378000000    -2.328000000
C    -0.599000000    -0.691000000    -1.014000000
H    -0.967000000    -1.229000000    -1.884000000
C    -0.725000000    -1.295000000     0.264000000
H    -1.352000000    -2.181000000     0.215000000
C    -0.165000000    -0.737000000     1.403000000
C    -0.335000000    -1.346000000     2.749000000
O    -0.547000000    -2.544000000     2.909000000
O    -0.215000000    -0.594000000     3.716000000
O     4.225000000    -1.284000000     0.076000000
H     4.382000000    -2.044000000    -0.484000000
H     3.901000000    -1.655000000     0.897000000
O     1.262000000    -4.180000000     1.644000000
H     1.137000000    -4.803000000     2.360000000
H     0.600000000    -3.505000000     1.796000000
O     3.696000000     2.615000000     2.430000000
H     3.803000000     2.366000000     1.511000000
H     4.161000000     1.935000000     2.917000000
O     4.363000000     1.366000000    -6.478000000
H     3.955000000     0.618000000    -6.042000000
H     4.851000000     0.981000000    -7.206000000
O     2.299000000     6.669000000    -3.301000000
H     2.719000000     6.127000000    -2.633000000
H     2.055000000     6.053000000    -3.991000000
O    -0.922000000    -4.933000000     6.581000000
H    -0.434000000    -4.222000000     6.166000000
H    -1.553000000    -4.491000000     7.149000000
O     3.053000000     5.166000000    -0.837000000
H     3.115000000     4.212000000    -0.883000000
H     3.558000000     5.402000000    -0.059000000
O    -3.652000000     0.138000000    -3.157000000
H    -3.187000000     0.918000000    -3.459000000
H    -3.817000000    -0.366000000    -3.955000000
O     1.031000000     1.405000000    -6.271000000
H     1.373000000     1.316000000    -5.381000000
H     0.357000000     2.082000000    -6.201000000
O     0.313000000     6.038000000     0.101000000
H    -0.129000000     5.208000000    -0.074000000
H     1.159000000     5.958000000    -0.341000000
O     3.604000000     0.179000000    -2.988000000
H     3.600000000    -0.191000000    -3.871000000
H     4.365000000    -0.219000000    -2.565000000
O    -3.958000000     0.023000000     6.074000000
H    -4.320000000     0.832000000     6.436000000
H    -4.561000000    -0.214000000     5.369000000
O    -1.185000000    -1.049000000     6.259000000
H    -2.007000000    -0.636000000     6.525000000
H    -1.093000000    -0.825000000     5.333000000
O    -1.584000000     1.997000000     4.113000000
H    -1.676000000     1.128000000     3.722000000
H    -0.643000000     2.174000000     4.084000000
O     1.104000000    -1.484000000    -6.558000000
H     0.179000000    -1.706000000    -6.671000000
H     1.132000000    -0.531000000    -6.632000000
O    -0.984000000    -1.366000000    -4.429000000
H    -0.995000000    -0.582000000    -4.979000000
H    -0.065000000    -1.473000000    -4.183000000
O    -3.956000000    -0.594000000     1.346000000
H    -4.074000000    -1.438000000     0.910000000
H    -4.397000000    -0.696000000     2.189000000
O    -3.041000000    -4.836000000    -1.107000000
H    -3.374000000    -4.487000000    -1.934000000
H    -2.220000000    -5.268000000    -1.343000000
O     1.095000000    -4.262000000    -1.068000000
H     0.324000000    -4.733000000    -1.384000000
H     1.048000000    -4.337000000    -0.115000000
O    -3.353000000     3.835000000     2.678000000
H    -3.394000000     3.497000000     3.572000000
H    -2.737000000     3.256000000     2.231000000
O     4.729000000     0.210000000     3.567000000
H     3.841000000    -0.073000000     3.785000000
H     5.296000000    -0.376000000     4.068000000
O     0.887000000    -5.582000000     3.853000000
H     1.444000000    -6.296000000     4.162000000
H     0.617000000    -5.126000000     4.650000000
O     3.954000000     2.424000000    -0.829000000
H     4.905000000     2.415000000    -0.724000000
H     3.749000000     1.577000000    -1.226000000
O     3.467000000    -1.042000000    -5.431000000
H     4.245000000    -1.531000000    -5.701000000
H     2.734000000    -1.616000000    -5.653000000
O     1.309000000     5.529000000     2.686000000
H     0.994000000     5.474000000     1.784000000
H     0.748000000     6.188000000     3.095000000
O    -1.065000000     3.231000000    -5.888000000
H    -1.601000000     2.795000000    -6.551000000
H    -1.325000000     4.151000000    -5.937000000
O    -4.691000000    -3.071000000     0.691000000
H    -4.143000000    -3.465000000     0.012000000
H    -4.632000000    -3.678000000     1.429000000
O    -2.268000000    -4.452000000     3.830000000
H    -2.270000000    -5.256000000     3.312000000
H    -1.891000000    -3.792000000     3.248000000
O    -2.158000000    -6.718000000     2.072000000
H    -2.541000000    -7.551000000     1.796000000
H    -1.216000000    -6.835000000     1.948000000
O    -0.975000000     5.833000000    -2.713000000
H    -0.897000000     5.147000000    -2.051000000
H    -1.834000000     6.224000000    -2.552000000
O    -0.049000000    -0.790000000     8.658000000
H    -0.381000000     0.062000000     8.374000000
H    -0.137000000    -1.350000000     7.887000000
O     3.095000000    -4.045000000     5.974000000
H     2.257000000    -3.616000000     5.799000000
H     3.235000000    -3.923000000     6.913000000
O    -3.113000000    -3.070000000    -3.457000000
H    -3.125000000    -2.322000000    -2.860000000
H    -2.411000000    -2.870000000    -4.077000000
O     1.659000000    -1.957000000    -2.960000000
H     2.208000000    -1.202000000    -2.750000000
H     1.340000000    -2.265000000    -2.112000000
O    -4.378000000    -6.172000000     0.698000000
H    -3.733000000    -6.129000000     1.403000000
H    -3.934000000    -5.785000000    -0.057000000
O    -5.119000000     2.792000000    -1.693000000
H    -4.486000000     2.457000000    -1.058000000
H    -4.622000000     2.872000000    -2.507000000
O    -2.992000000     3.087000000    -3.841000000
H    -3.627000000     3.602000000    -4.339000000
H    -2.261000000     2.958000000    -4.445000000
O     1.254000000     4.448000000    -4.491000000
H     0.847000000     3.862000000    -5.129000000
H     0.521000000     4.796000000    -3.983000000
O     3.684000000     3.191000000    -4.223000000
H     3.954000000     2.707000000    -5.004000000
H     2.897000000     3.664000000    -4.494000000
O     3.526000000    -2.543000000     2.550000000
H     2.785000000    -3.135000000     2.420000000
H     3.507000000    -2.337000000     3.485000000
O    -2.474000000     1.498000000     0.548000000
H    -1.736000000     0.925000000     0.343000000
H    -3.094000000     0.934000000     1.012000000
O     2.257000000     0.060000000     4.523000000
H     1.983000000     0.977000000     4.504000000
H     1.447000000    -0.435000000     4.402000000
O     3.446000000     0.185000000     7.077000000
H     2.921000000     0.060000000     6.287000000
H     2.976000000    -0.299000000     7.756000000
O    -3.997000000    -2.885000000     5.423000000
H    -3.301000000    -2.349000000     5.803000000
H    -3.536000000    -3.541000000     4.900000000
O     3.827000000     5.281000000     3.433000000
H     3.931000000     4.413000000     3.044000000
H     2.925000000     5.528000000     3.227000000
O    -1.057000000     3.865000000    -0.428000000
H    -1.984000000     3.865000000    -0.188000000
H    -0.799000000     2.945000000    -0.386000000
O     1.251000000     2.650000000     4.350000000
H     1.737000000     3.096000000     3.657000000
H     0.850000000     3.357000000     4.855000000
O     0.652000000    -2.818000000     5.338000000
H     0.368000000    -2.609000000     4.449000000
H     0.091000000    -2.284000000     5.901000000
