161
-3029.81571
C     0.981000000     0.898000000     0.700000000
H     1.784000000     1.539000000     1.056000000
C     0.578000000     1.015000000    -0.683000000
H     0.911000000     1.849000000    -1.295000000
C    -0.378000000     0.107000000    -1.197000000
C    -0.856000000     0.236000000    -2.593000000
H    -1.934000000     0.230000000    -2.767000000
H    -0.707000000     1.205000000    -3.075000000
H    -0.473000000    -0.547000000    -3.251000000
C    -0.766000000    -0.963000000    -0.405000000
H    -1.482000000    -1.714000000    -0.729000000
C    -0.374000000    -1.098000000     0.930000000
H    -0.823000000    -1.877000000     1.542000000
C     0.535000000    -0.198000000     1.473000000
C     0.912000000    -0.207000000     2.999000000
O     0.605000000    -1.160000000     3.738000000
O     1.482000000     0.691000000     3.560000000
O     4.265000000    -0.689000000    -1.414000000
H     3.535000000    -1.302000000    -1.321000000
H     5.043000000    -1.212000000    -1.221000000
O     2.721000000    -2.765000000     3.636000000
H     2.771000000    -3.326000000     2.863000000
H     1.911000000    -2.268000000     3.520000000
O    -0.030000000     0.963000000    -8.162000000
H    -0.217000000     1.159000000    -9.080000000
H    -0.767000000     0.423000000    -7.878000000
O     1.137000000    -3.280000000     8.519000000
H     1.463000000    -2.781000000     7.770000000
H     1.153000000    -2.659000000     9.247000000
O     1.943000000     0.278000000    -4.784000000
H     1.923000000     0.189000000    -5.737000000
H     1.728000000     1.197000000    -4.624000000
O     4.081000000     3.872000000     5.539000000
H     3.835000000     4.764000000     5.782000000
H     3.258000000     3.460000000     5.276000000
O     0.678000000    -5.439000000    -0.353000000
H     1.055000000    -4.799000000    -0.957000000
H    -0.267000000    -5.299000000    -0.415000000
O     2.407000000     3.688000000    -0.913000000
H     2.891000000     3.056000000    -1.444000000
H     3.040000000     4.383000000    -0.731000000
O    -5.446000000    -1.232000000    -4.571000000
H    -5.017000000    -0.412000000    -4.816000000
H    -5.362000000    -1.788000000    -5.346000000
O     1.314000000     2.959000000    -7.136000000
H     0.742000000     3.639000000    -6.782000000
H     0.728000000     2.384000000    -7.628000000
O    -0.039000000     4.880000000    -0.314000000
H    -0.542000000     5.071000000    -1.106000000
H     0.618000000     4.243000000    -0.595000000
O    -1.473000000    -0.674000000     5.339000000
H    -0.924000000    -0.042000000     5.803000000
H    -0.887000000    -1.071000000     4.694000000
O     1.173000000     3.326000000     3.646000000
H     0.869000000     3.373000000     4.552000000
H     1.404000000     2.406000000     3.518000000
O    -0.847000000    -3.502000000    -3.724000000
H     0.024000000    -3.133000000    -3.579000000
H    -0.753000000    -4.035000000    -4.513000000
O    -2.463000000     0.303000000     3.179000000
H    -2.992000000    -0.490000000     3.091000000
H    -2.079000000     0.239000000     4.054000000
O    -1.502000000    -4.381000000     6.403000000
H    -2.243000000    -3.804000000     6.220000000
H    -0.869000000    -4.184000000     5.712000000
O    -2.307000000    -5.454000000    -0.235000000
H    -3.004000000    -4.922000000    -0.620000000
H    -2.607000000    -6.357000000    -0.347000000
O     2.191000000    -2.173000000    -0.564000000
H     2.449000000    -2.711000000     0.185000000
H     1.454000000    -1.653000000    -0.243000000
O    -1.766000000     2.548000000     2.046000000
H    -0.820000000     2.404000000     2.046000000
H    -2.136000000     1.709000000     2.321000000
O     6.195000000    -0.423000000     2.467000000
H     5.927000000    -0.501000000     1.551000000
H     6.687000000     0.397000000     2.503000000
O     1.110000000     0.024000000     8.631000000
H     0.996000000     0.399000000     7.758000000
H     1.981000000    -0.374000000     8.609000000
O     0.954000000    -5.049000000     5.069000000
H     0.533000000    -5.519000000     5.788000000
H     1.885000000    -5.055000000     5.291000000
O     3.422000000     1.915000000    -2.987000000
H     3.999000000     1.636000000    -3.698000000
H     3.395000000     1.166000000    -2.392000000
O     2.094000000     5.757000000     1.585000000
H     1.677000000     4.899000000     1.502000000
H     1.376000000     6.352000000     1.801000000
O    -1.921000000     2.291000000    -5.625000000
H    -1.282000000     1.846000000    -6.181000000
H    -1.572000000     3.175000000    -5.519000000
O    -0.650000000     4.865000000    -5.750000000
H    -0.608000000     5.545000000    -6.422000000
H    -0.427000000     5.318000000    -4.937000000
O    -4.718000000    -3.758000000    -0.210000000
H    -5.132000000    -3.866000000     0.646000000
H    -4.788000000    -2.822000000    -0.394000000
O    -3.236000000    -2.262000000     2.236000000
H    -2.420000000    -2.697000000     1.991000000
H    -3.817000000    -2.976000000     2.500000000
O    -5.868000000     4.005000000    -2.780000000
H    -6.119000000     3.364000000    -3.445000000
H    -5.091000000     3.629000000    -2.367000000
O     1.259000000     3.733000000     6.828000000
H     0.433000000     4.167000000     7.041000000
H     1.893000000     4.114000000     7.435000000
O    -0.395000000    -3.550000000     3.417000000
H     0.127000000    -4.085000000     4.015000000
H    -0.176000000    -2.648000000     3.651000000
O     1.233000000     1.098000000     6.160000000
H     1.555000000     0.924000000     5.276000000
H     1.173000000     2.052000000     6.209000000
O     0.038000000    -4.511000000    -5.983000000
H    -0.085000000    -3.806000000    -6.619000000
H    -0.038000000    -5.314000000    -6.499000000
O    -3.764000000    -3.240000000    -3.508000000
H    -3.985000000    -2.309000000    -3.464000000
H    -2.834000000    -3.276000000    -3.289000000
O     1.774000000    -2.232000000    -3.585000000
H     1.724000000    -1.370000000    -3.999000000
H     2.276000000    -2.085000000    -2.784000000
O    -1.810000000    -5.715000000     2.412000000
H    -1.386000000    -4.973000000     2.844000000
H    -1.822000000    -5.476000000     1.485000000
O    -3.517000000     2.269000000    -1.824000000
H    -3.374000000     2.942000000    -1.159000000
H    -3.318000000     1.446000000    -1.377000000
O     3.610000000    -4.027000000    -4.527000000
H     3.098000000    -4.759000000    -4.181000000
H     3.015000000    -3.278000000    -4.486000000
O     5.947000000     1.251000000    -0.558000000
H     5.199000000     0.755000000    -0.890000000
H     6.699000000     0.900000000    -1.035000000
O    -4.092000000     1.081000000    -4.556000000
H    -3.924000000     1.309000000    -3.641000000
H    -3.334000000     1.421000000    -5.031000000
O    -5.906000000    -0.188000000    -1.962000000
H    -5.610000000    -0.619000000    -2.764000000
H    -5.217000000    -0.371000000    -1.324000000
O     3.089000000     4.698000000    -4.090000000
H     3.054000000     3.799000000    -3.761000000
H     2.263000000     5.089000000    -3.804000000
O    -3.886000000    -0.422000000    -0.047000000
H    -4.041000000    -0.129000000     0.851000000
H    -3.049000000    -0.885000000    -0.006000000
O     4.189000000     0.302000000     4.612000000
H     4.774000000    -0.179000000     4.026000000
H     3.497000000     0.635000000     4.040000000
O     4.870000000    -1.370000000     6.637000000
H     4.586000000    -0.632000000     6.098000000
H     4.148000000    -1.997000000     6.586000000
O    -3.354000000    -2.534000000     5.607000000
H    -2.786000000    -1.819000000     5.319000000
H    -4.149000000    -2.435000000     5.083000000
O    -3.215000000     4.044000000     0.300000000
H    -2.572000000     4.546000000    -0.202000000
H    -2.690000000     3.527000000     0.911000000
O     1.904000000    -1.831000000     6.326000000
H     1.768000000    -0.884000000     6.313000000
H     1.945000000    -2.081000000     5.403000000
