161
-3044.51368
C     1.461000000     0.212000000    -0.220000000
H     2.519000000     0.389000000    -0.394000000
C     0.468000000     0.648000000    -1.104000000
H     0.837000000     1.168000000    -1.984000000
C    -0.863000000     0.481000000    -0.737000000
C    -1.929000000     0.873000000    -1.659000000
H    -1.367000000     0.988000000    -2.589000000
H    -2.680000000     0.134000000    -1.946000000
H    -2.465000000     1.784000000    -1.385000000
C    -1.204000000    -0.122000000     0.442000000
H    -2.229000000    -0.257000000     0.778000000
C    -0.253000000    -0.634000000     1.311000000
H    -0.562000000    -1.131000000     2.227000000
C     1.088000000    -0.544000000     0.902000000
C     2.118000000    -1.187000000     1.812000000
O     1.857000000    -2.203000000     2.426000000
O     3.204000000    -0.605000000     2.125000000
O     4.354000000    -4.967000000    -0.100000000
H     4.992000000    -4.592000000    -0.707000000
H     4.137000000    -5.820000000    -0.476000000
O     5.470000000    -4.517000000     2.347000000
H     5.004000000    -4.795000000     1.559000000
H     4.827000000    -4.007000000     2.839000000
O     3.564000000     1.909000000     1.472000000
H     3.354000000     2.080000000     2.390000000
H     3.564000000     0.954000000     1.401000000
O     8.221000000     0.037000000     2.078000000
H     7.552000000    -0.643000000     2.000000000
H     8.524000000    -0.027000000     2.984000000
O    -1.502000000    -2.982000000    -4.456000000
H    -1.386000000    -3.115000000    -3.516000000
H    -1.859000000    -2.097000000    -4.532000000
O     2.819000000     2.696000000    -2.552000000
H     3.263000000     3.473000000    -2.894000000
H     2.108000000     3.044000000    -2.015000000
O     0.672000000     5.416000000    -2.811000000
H    -0.159000000     5.225000000    -2.376000000
H     0.478000000     5.334000000    -3.745000000
O     4.485000000     0.600000000    -3.050000000
H     3.860000000     1.284000000    -2.811000000
H     5.292000000     0.846000000    -2.597000000
O    -4.683000000     2.700000000     0.192000000
H    -4.024000000     3.241000000     0.627000000
H    -4.827000000     3.129000000    -0.652000000
O     2.176000000    -1.343000000     6.006000000
H     1.603000000    -0.839000000     5.429000000
H     1.698000000    -1.394000000     6.834000000
O     5.172000000     4.462000000     1.514000000
H     4.656000000     3.713000000     1.215000000
H     6.019000000     4.087000000     1.757000000
O    -3.732000000     2.175000000    -6.119000000
H    -4.459000000     2.762000000    -5.909000000
H    -3.633000000     1.628000000    -5.339000000
O    -3.074000000    -2.795000000     6.161000000
H    -2.360000000    -2.159000000     6.213000000
H    -2.763000000    -3.452000000     5.538000000
O     1.758000000    -5.379000000     5.366000000
H     0.959000000    -5.155000000     5.843000000
H     1.452000000    -5.861000000     4.598000000
O    -4.260000000    -2.584000000     2.979000000
H    -4.994000000    -2.684000000     3.585000000
H    -3.810000000    -1.794000000     3.276000000
O    -0.511000000     1.292000000    -5.307000000
H    -1.165000000     0.661000000    -5.006000000
H    -0.219000000     0.949000000    -6.152000000
O    -3.449000000     2.017000000     3.285000000
H    -3.888000000     2.487000000     2.576000000
H    -3.022000000     2.703000000     3.798000000
O    -2.623000000     4.064000000     1.297000000
H    -2.426000000     4.879000000     1.758000000
H    -1.806000000     3.568000000     1.327000000
O    -1.970000000    -4.254000000     4.420000000
H    -1.386000000    -3.775000000     3.831000000
H    -1.450000000    -4.393000000     5.211000000
O    -7.639000000     0.301000000    -4.084000000
H    -6.746000000     0.633000000    -3.987000000
H    -8.091000000     0.976000000    -4.589000000
O    -0.218000000    -5.039000000    -0.318000000
H     0.546000000    -4.493000000    -0.130000000
H    -0.236000000    -5.104000000    -1.273000000
O     2.055000000    -3.641000000     0.001000000
H     2.270000000    -3.252000000     0.849000000
H     2.845000000    -4.119000000    -0.250000000
O    -0.063000000     2.854000000     1.173000000
H     0.465000000     2.801000000     0.377000000
H     0.001000000     1.982000000     1.562000000
O     5.632000000     2.574000000     5.177000000
H     5.593000000     1.646000000     4.944000000
H     6.326000000     2.627000000     5.834000000
O     6.982000000     2.301000000     0.905000000
H     6.769000000     2.042000000     0.009000000
H     7.217000000     1.482000000     1.342000000
O    -4.934000000     1.426000000    -3.514000000
H    -4.381000000     2.206000000    -3.473000000
H    -4.940000000     1.089000000    -2.618000000
O    -2.959000000     3.394000000    -3.664000000
H    -2.614000000     3.915000000    -2.939000000
H    -2.362000000     3.571000000    -4.391000000
O    -3.824000000    -4.550000000    -3.947000000
H    -3.260000000    -3.956000000    -3.451000000
H    -4.402000000    -4.937000000    -3.288000000
O    -2.335000000    -3.290000000    -1.213000000
H    -1.692000000    -2.595000000    -1.077000000
H    -1.977000000    -4.044000000    -0.744000000
O    -0.594000000     4.000000000    -5.182000000
H    -0.096000000     4.341000000    -5.925000000
H    -0.670000000     3.062000000    -5.354000000
O     3.374000000    -3.519000000     4.031000000
H     2.759000000    -2.936000000     3.586000000
H     2.826000000    -4.047000000     4.613000000
O    -1.643000000     5.073000000    -1.399000000
H    -2.189000000     5.813000000    -1.664000000
H    -1.812000000     4.975000000    -0.462000000
O     4.709000000    -0.280000000     4.446000000
H     4.393000000    -0.169000000     3.550000000
H     3.914000000    -0.320000000     4.978000000
O     0.280000000    -2.132000000    -2.091000000
H     0.336000000    -1.194000000    -1.905000000
H     1.104000000    -2.491000000    -1.762000000
O    -0.249000000    -3.730000000     2.398000000
H     0.508000000    -3.180000000     2.194000000
H    -0.323000000    -4.322000000     1.649000000
O     1.549000000    -1.697000000    -4.744000000
H     1.157000000    -2.340000000    -5.335000000
H     1.180000000    -1.905000000    -3.886000000
O    -5.577000000     4.465000000    -1.710000000
H    -5.581000000     4.935000000    -2.544000000
H    -6.237000000     4.911000000    -1.180000000
O    -2.975000000    -0.569000000    -4.618000000
H    -3.551000000    -0.489000000    -5.378000000
H    -3.550000000    -0.428000000    -3.865000000
O    -6.175000000    -2.749000000    -2.223000000
H    -6.213000000    -2.450000000    -1.314000000
H    -6.074000000    -3.698000000    -2.159000000
O     6.664000000    -2.114000000     5.366000000
H     7.409000000    -1.529000000     5.229000000
H     5.939000000    -1.690000000     4.907000000
O     6.740000000     1.565000000    -1.625000000
H     7.140000000     0.755000000    -1.940000000
H     7.239000000     2.261000000    -2.053000000
O     1.895000000     4.605000000    -0.345000000
H     2.595000000     5.216000000    -0.575000000
H     1.210000000     4.769000000    -0.994000000
O     6.441000000    -2.773000000    -0.463000000
H     6.068000000    -2.085000000     0.088000000
H     6.975000000    -3.296000000     0.136000000
O    -4.419000000    -1.992000000     0.203000000
H    -4.291000000    -2.231000000     1.121000000
H    -4.076000000    -2.738000000    -0.289000000
O     5.820000000    -1.369000000     1.770000000
H     5.950000000    -1.932000000     2.533000000
H     4.877000000    -1.202000000     1.754000000
O    -2.888000000    -0.472000000     4.135000000
H    -2.252000000    -0.437000000     4.850000000
H    -3.031000000     0.444000000     3.898000000
O    -5.290000000     0.257000000    -1.133000000
H    -5.031000000    -0.575000000    -0.738000000
H    -4.923000000     0.923000000    -0.551000000
O    -1.137000000    -0.384000000     6.309000000
H    -0.607000000    -0.777000000     7.003000000
H    -0.982000000     0.557000000     6.392000000
