161
-3031.28385
C     0.882000000     0.175000000     1.159000000
H     1.665000000     0.269000000     1.907000000
C     1.135000000     0.699000000    -0.158000000
H     2.054000000     1.241000000    -0.365000000
C     0.272000000     0.331000000    -1.173000000
C     0.383000000     0.987000000    -2.536000000
H     0.142000000     0.355000000    -3.393000000
H    -0.145000000     1.942000000    -2.504000000
H     1.435000000     1.227000000    -2.699000000
C    -0.823000000    -0.496000000    -0.834000000
H    -1.574000000    -0.729000000    -1.585000000
C    -1.127000000    -0.892000000     0.431000000
H    -1.979000000    -1.537000000     0.628000000
C    -0.281000000    -0.528000000     1.463000000
C    -0.593000000    -0.879000000     2.887000000
O    -1.595000000    -1.550000000     3.063000000
O     0.151000000    -0.615000000     3.714000000
O     1.872000000    -5.156000000     4.221000000
H     2.153000000    -5.255000000     5.130000000
H     1.873000000    -4.210000000     4.071000000
O    -1.688000000     2.391000000     7.281000000
H    -1.214000000     2.695000000     6.507000000
H    -2.545000000     2.814000000     7.219000000
O     3.791000000     3.558000000    -0.524000000
H     4.499000000     2.934000000    -0.365000000
H     3.345000000     3.636000000     0.319000000
O     5.524000000     1.614000000     4.054000000
H     5.705000000     0.680000000     3.947000000
H     6.065000000     1.879000000     4.798000000
O    -2.941000000     3.280000000     1.914000000
H    -1.989000000     3.267000000     2.011000000
H    -3.223000000     2.408000000     2.191000000
O     2.984000000     0.361000000    -5.394000000
H     2.152000000     0.691000000    -5.732000000
H     2.785000000     0.083000000    -4.499000000
O     3.342000000     2.953000000     4.976000000
H     3.993000000     2.367000000     4.590000000
H     2.538000000     2.434000000     5.002000000
O     5.322000000     1.518000000     0.887000000
H     5.547000000     0.654000000     0.542000000
H     5.180000000     1.373000000     1.823000000
O     1.103000000    -1.612000000     7.845000000
H     0.325000000    -1.518000000     7.295000000
H     0.760000000    -1.671000000     8.737000000
O     0.587000000    -2.230000000    -4.978000000
H     1.248000000    -2.610000000    -5.556000000
H    -0.094000000    -1.909000000    -5.570000000
O     1.670000000     0.958000000     5.465000000
H     0.979000000     0.385000000     5.132000000
H     2.355000000     0.360000000     5.761000000
O    -5.328000000    -0.577000000    -0.704000000
H    -5.912000000    -0.340000000    -1.423000000
H    -4.623000000     0.069000000    -0.744000000
O     0.824000000     5.813000000    -5.304000000
H     1.369000000     6.375000000    -4.754000000
H     1.339000000     5.013000000    -5.413000000
O     2.273000000    -3.714000000     0.534000000
H     2.603000000    -3.072000000    -0.094000000
H     1.515000000    -3.290000000     0.935000000
O    -4.005000000    -5.219000000     0.369000000
H    -3.249000000    -5.692000000     0.717000000
H    -3.863000000    -5.204000000    -0.578000000
O    -4.143000000    -1.066000000     5.219000000
H    -4.557000000    -1.723000000     5.778000000
H    -4.088000000    -1.484000000     4.359000000
O    -3.281000000     4.643000000    -4.309000000
H    -3.368000000     5.557000000    -4.039000000
H    -2.401000000     4.586000000    -4.682000000
O    -0.762000000    -5.826000000     3.900000000
H     0.101000000    -5.415000000     3.840000000
H    -0.623000000    -6.595000000     4.452000000
O    -0.161000000     2.933000000     2.878000000
H    -0.252000000     1.989000000     2.750000000
H    -0.035000000     3.036000000     3.821000000
O     4.944000000    -3.593000000     3.710000000
H     4.154000000    -3.057000000     3.635000000
H     5.281000000    -3.648000000     2.816000000
O    -0.295000000    -4.665000000    -0.932000000
H     0.393000000    -5.319000000    -0.809000000
H    -0.440000000    -4.302000000    -0.058000000
O     4.947000000    -0.189000000    -3.254000000
H     5.342000000     0.086000000    -4.082000000
H     5.061000000     0.562000000    -2.673000000
O    -2.799000000    -2.422000000    -4.675000000
H    -3.683000000    -2.229000000    -4.363000000
H    -2.925000000    -3.074000000    -5.365000000
O    -1.139000000     4.438000000    -1.091000000
H    -1.333000000     5.208000000    -0.558000000
H    -0.636000000     4.780000000    -1.831000000
O    -2.536000000    -3.770000000     4.704000000
H    -2.022000000    -4.561000000     4.541000000
H    -2.190000000    -3.128000000     4.084000000
O     5.700000000     2.692000000    -3.104000000
H     5.011000000     3.357000000    -3.120000000
H     6.479000000     3.161000000    -2.804000000
O    -1.264000000    -1.650000000     6.224000000
H    -1.782000000    -2.371000000     5.867000000
H    -0.877000000    -1.230000000     5.455000000
O     1.601000000     2.734000000     7.680000000
H     1.299000000     2.258000000     6.906000000
H     0.944000000     2.545000000     8.349000000
O    -2.329000000     0.315000000    -4.874000000
H    -2.599000000    -0.600000000    -4.794000000
H    -1.474000000     0.350000000    -4.444000000
O    -0.475000000    -3.793000000     1.951000000
H    -0.922000000    -3.077000000     2.402000000
H    -1.119000000    -4.501000000     1.928000000
O     3.694000000    -2.164000000    -1.728000000
H     3.725000000    -1.386000000    -2.284000000
H     2.950000000    -2.666000000    -2.060000000
O    -5.486000000    -1.353000000     1.892000000
H    -5.875000000    -2.218000000     1.761000000
H    -5.446000000    -0.974000000     1.014000000
O    -1.487000000    -4.770000000    -3.330000000
H    -1.165000000    -3.944000000    -3.691000000
H    -1.230000000    -4.745000000    -2.408000000
O    -3.913000000     4.402000000    -0.582000000
H    -3.132000000     4.535000000    -1.119000000
H    -3.572000000     4.203000000     0.290000000
O    -3.474000000     0.388000000     2.274000000
H    -4.301000000    -0.067000000     2.115000000
H    -2.813000000    -0.304000000     2.259000000
O    -2.612000000     2.298000000    -6.747000000
H    -2.226000000     3.142000000    -6.513000000
H    -2.559000000     1.780000000    -5.945000000
O     2.735000000     3.903000000    -5.691000000
H     2.335000000     3.124000000    -6.077000000
H     2.936000000     3.648000000    -4.790000000
O     5.325000000    -1.170000000     0.655000000
H     5.567000000    -2.058000000     0.919000000
H     4.836000000    -1.288000000    -0.159000000
O     1.414000000    -3.541000000    -2.748000000
H     1.024000000    -3.109000000    -3.508000000
H     0.666000000    -3.867000000    -2.248000000
O    -3.761000000     1.696000000    -1.172000000
H    -3.188000000     1.658000000    -0.406000000
H    -3.821000000     2.628000000    -1.380000000
O    -4.147000000     1.646000000     4.925000000
H    -3.977000000     1.860000000     4.007000000
H    -3.894000000     0.727000000     5.007000000
O     2.116000000    -2.291000000     4.030000000
H     2.562000000    -1.806000000     4.725000000
H     1.371000000    -1.738000000     3.793000000
O     1.324000000     4.620000000     0.845000000
H     0.807000000     4.029000000     1.394000000
H     0.914000000     4.565000000    -0.018000000
O     3.247000000    -1.115000000     6.275000000
H     4.022000000    -0.960000000     6.815000000
H     2.543000000    -1.272000000     6.904000000
O     1.027000000     1.806000000    -6.843000000
H     1.186000000     1.306000000    -7.644000000
H     0.074000000     1.851000000    -6.774000000
O    -5.233000000     0.732000000    -4.500000000
H    -4.311000000     0.740000000    -4.244000000
H    -5.223000000     0.478000000    -5.423000000
O    -4.102000000    -4.773000000    -2.883000000
H    -3.163000000    -4.657000000    -3.030000000
H    -4.419000000    -3.899000000    -2.655000000
O     3.378000000     4.560000000    -2.958000000
H     2.806000000     5.315000000    -2.819000000
H     3.502000000     4.190000000    -2.084000000
