161
-3041.50706
C     0.887000000     1.161000000     0.129000000
H     1.578000000     1.991000000     0.005000000
C     1.123000000     0.017000000    -0.603000000
H     2.013000000    -0.004000000    -1.227000000
C     0.277000000    -1.048000000    -0.676000000
C     0.397000000    -2.132000000    -1.673000000
H    -0.615000000    -2.288000000    -2.053000000
H     1.161000000    -1.939000000    -2.430000000
H     0.708000000    -3.054000000    -1.179000000
C    -0.851000000    -0.963000000     0.128000000
H    -1.539000000    -1.805000000     0.122000000
C    -1.024000000     0.112000000     1.037000000
H    -1.888000000     0.176000000     1.692000000
C    -0.211000000     1.200000000     1.037000000
C    -0.558000000     2.471000000     1.751000000
O    -1.683000000     2.735000000     2.111000000
O     0.228000000     3.368000000     1.831000000
O    -2.918000000    -5.112000000     2.418000000
H    -3.856000000    -4.929000000     2.474000000
H    -2.718000000    -5.056000000     1.484000000
O    -0.683000000     7.067000000     3.812000000
H    -1.054000000     7.930000000     3.998000000
H    -0.323000000     6.775000000     4.650000000
O    -3.663000000     1.438000000     3.498000000
H    -2.964000000     1.670000000     2.887000000
H    -4.451000000     1.396000000     2.956000000
O    -6.598000000    -0.529000000     3.389000000
H    -7.513000000    -0.413000000     3.132000000
H    -6.100000000    -0.338000000     2.594000000
O     3.414000000     0.656000000     3.586000000
H     3.955000000     0.763000000     4.369000000
H     2.814000000    -0.057000000     3.805000000
O     2.028000000    -4.267000000    -4.192000000
H     2.939000000    -4.202000000    -3.906000000
H     1.747000000    -5.135000000    -3.902000000
O    -0.904000000    -5.901000000    -3.606000000
H    -1.670000000    -6.351000000    -3.962000000
H    -0.935000000    -5.028000000    -3.997000000
O     3.854000000    -1.142000000    -3.921000000
H     3.111000000    -0.690000000    -3.520000000
H     4.500000000    -1.210000000    -3.218000000
O    -3.497000000     2.405000000     6.007000000
H    -3.358000000     2.128000000     5.102000000
H    -4.448000000     2.394000000     6.118000000
O     0.190000000    -2.092000000    -4.902000000
H     0.581000000    -2.779000000    -4.362000000
H     0.578000000    -1.281000000    -4.575000000
O     3.345000000    -2.667000000    -6.540000000
H     3.072000000    -2.042000000    -5.869000000
H     2.999000000    -3.507000000    -6.240000000
O    -2.043000000     4.635000000    -2.080000000
H    -2.208000000     5.492000000    -2.475000000
H    -1.765000000     4.833000000    -1.186000000
O    -2.532000000    -4.738000000    -0.395000000
H    -3.112000000    -5.427000000    -0.719000000
H    -2.713000000    -3.987000000    -0.961000000
O    -5.328000000    -0.640000000     1.057000000
H    -5.353000000    -0.708000000     0.103000000
H    -5.020000000     0.250000000     1.226000000
O    -0.223000000    -1.812000000     3.067000000
H    -0.615000000    -1.492000000     2.255000000
H     0.720000000    -1.713000000     2.933000000
O    -3.017000000     4.826000000     3.434000000
H    -2.820000000     3.980000000     3.032000000
H    -2.273000000     5.381000000     3.203000000
O    -3.345000000    -4.249000000    -4.571000000
H    -3.482000000    -3.874000000    -3.702000000
H    -4.228000000    -4.413000000    -4.903000000
O     1.531000000     4.519000000    -0.267000000
H     1.100000000     4.261000000     0.548000000
H     2.209000000     5.137000000     0.006000000
O     4.575000000     0.027000000     1.008000000
H     5.366000000    -0.315000000     1.424000000
H     4.051000000     0.368000000     1.734000000
O     4.742000000     1.859000000    -4.530000000
H     4.930000000     1.377000000    -3.725000000
H     5.579000000     1.884000000    -4.995000000
O     3.095000000    -3.736000000     0.599000000
H     2.177000000    -3.989000000     0.502000000
H     3.497000000    -4.467000000     1.070000000
O    -3.363000000     2.153000000    -0.116000000
H    -3.937000000     2.908000000    -0.241000000
H    -2.891000000     2.342000000     0.695000000
O     5.084000000     4.230000000     1.506000000
H     4.408000000     3.893000000     2.095000000
H     4.656000000     4.273000000     0.651000000
O     0.282000000     4.030000000     4.364000000
H    -0.513000000     4.412000000     4.736000000
H     0.032000000     3.775000000     3.476000000
O    -0.976000000     0.025000000     5.675000000
H    -0.676000000     0.670000000     5.034000000
H    -1.658000000    -0.468000000     5.218000000
O     2.682000000     3.067000000     2.473000000
H     1.774000000     3.021000000     2.174000000
H     2.816000000     2.251000000     2.956000000
O    -3.572000000     7.353000000     1.458000000
H    -2.779000000     6.849000000     1.276000000
H    -3.528000000     8.096000000     0.855000000
O    -1.458000000     5.267000000     0.822000000
H    -0.738000000     5.718000000     1.265000000
H    -1.517000000     4.420000000     1.263000000
O    -5.653000000     2.104000000     2.004000000
H    -6.372000000     1.991000000     1.382000000
H    -5.605000000     3.050000000     2.145000000
O     4.605000000    -1.919000000    -0.957000000
H     4.110000000    -2.588000000    -0.483000000
H     4.526000000    -1.135000000    -0.414000000
O    -4.354000000     1.254000000    -2.589000000
H    -3.843000000     1.323000000    -1.782000000
H    -3.754000000     1.541000000    -3.277000000
O     4.644000000    -4.078000000    -3.205000000
H     4.412000000    -3.382000000    -2.591000000
H     5.569000000    -3.928000000    -3.400000000
O     0.793000000     0.426000000    -4.002000000
H     0.994000000     1.337000000    -4.215000000
H     0.060000000     0.480000000    -3.388000000
O    -3.666000000    -2.684000000    -2.195000000
H    -4.495000000    -2.574000000    -1.729000000
H    -3.557000000    -1.870000000    -2.686000000
O     3.062000000     6.347000000     3.773000000
H     3.034000000     5.397000000     3.884000000
H     2.721000000     6.496000000     2.891000000
O     2.581000000    -2.159000000     3.172000000
H     2.499000000    -3.113000000     3.179000000
H     2.901000000    -1.952000000     2.294000000
O     4.079000000     4.460000000    -1.327000000
H     4.256000000     4.799000000    -2.205000000
H     3.159000000     4.197000000    -1.353000000
O     0.303000000    -5.850000000    -0.521000000
H    -0.585000000    -5.492000000    -0.504000000
H     0.369000000    -6.287000000    -1.369000000
O    -4.612000000     4.733000000     0.594000000
H    -3.700000000     5.002000000     0.700000000
H    -5.048000000     5.049000000     1.386000000
O    -5.469000000    -3.485000000     1.737000000
H    -5.275000000    -2.635000000     1.342000000
H    -6.243000000    -3.326000000     2.279000000
O     0.852000000     7.333000000     1.580000000
H     0.543000000     7.075000000     2.449000000
H     0.480000000     8.205000000     1.443000000
O    -1.273000000     1.547000000    -2.616000000
H    -1.180000000     1.353000000    -1.683000000
H    -1.029000000     2.469000000    -2.695000000
O     2.524000000     3.557000000     6.141000000
H     2.596000000     2.627000000     6.356000000
H     1.735000000     3.618000000     5.603000000
O    -3.211000000    -1.120000000     4.497000000
H    -3.904000000    -1.779000000     4.479000000
H    -3.572000000    -0.379000000     4.009000000
O     0.907000000    -6.871000000     2.150000000
H     0.641000000    -6.186000000     1.537000000
H     1.460000000    -7.455000000     1.631000000
O     5.896000000     1.436000000    -2.048000000
H     5.963000000     2.370000000    -2.246000000
H     6.356000000     1.334000000    -1.214000000
O     0.706000000     3.736000000    -2.693000000
H     0.888000000     3.858000000    -1.762000000
H     0.393000000     4.591000000    -2.990000000
O    -0.807000000    -4.526000000     4.165000000
H    -0.557000000    -3.652000000     3.863000000
H    -1.763000000    -4.502000000     4.202000000
