161
-3066.20796
C     1.231000000     0.328000000     0.794000000
H     2.176000000     0.300000000     1.329000000
C     1.155000000    -0.599000000    -0.312000000
H     2.025000000    -1.214000000    -0.528000000
C    -0.037000000    -0.669000000    -1.012000000
C    -0.201000000    -1.737000000    -2.030000000
H    -0.662000000    -1.447000000    -2.976000000
H     0.699000000    -2.262000000    -2.356000000
H    -0.933000000    -2.436000000    -1.620000000
C    -1.092000000     0.112000000    -0.681000000
H    -1.991000000    -0.017000000    -1.277000000
C    -1.108000000     0.871000000     0.460000000
H    -1.952000000     1.439000000     0.843000000
C     0.088000000     0.984000000     1.200000000
C     0.172000000     1.849000000     2.422000000
O    -0.761000000     2.590000000     2.650000000
O     1.187000000     1.915000000     3.091000000
O    -2.951000000    -2.347000000     0.246000000
H    -2.720000000    -2.993000000    -0.421000000
H    -2.930000000    -2.834000000     1.070000000
O     2.841000000     4.815000000     5.006000000
H     2.732000000     5.502000000     4.349000000
H     3.513000000     4.239000000     4.641000000
O    -1.185000000    -0.949000000     4.378000000
H    -1.991000000    -0.514000000     4.101000000
H    -1.042000000    -1.630000000     3.720000000
O     3.709000000    -5.239000000     1.820000000
H     4.652000000    -5.121000000     1.932000000
H     3.449000000    -4.540000000     1.221000000
O     4.011000000    -0.582000000     5.911000000
H     4.620000000    -1.320000000     5.884000000
H     3.380000000    -0.767000000     5.216000000
O     1.868000000    -5.323000000    -6.467000000
H     1.413000000    -5.191000000    -5.636000000
H     2.526000000    -5.991000000    -6.277000000
O    -3.787000000     4.920000000    -0.759000000
H    -4.373000000     5.627000000    -0.489000000
H    -3.009000000     5.367000000    -1.090000000
O    -3.614000000     2.297000000    -1.524000000
H    -3.440000000     3.227000000    -1.378000000
H    -4.320000000     2.087000000    -0.912000000
O    -1.282000000     0.930000000    -5.713000000
H    -1.184000000     1.657000000    -5.098000000
H    -0.427000000     0.857000000    -6.137000000
O    -3.220000000    -4.144000000    -1.743000000
H    -4.077000000    -4.569000000    -1.771000000
H    -3.164000000    -3.664000000    -2.569000000
O    -5.517000000     1.427000000    -4.553000000
H    -4.918000000     0.801000000    -4.145000000
H    -4.944000000     2.072000000    -4.967000000
O    -0.567000000    -2.635000000     2.254000000
H    -0.747000000    -2.147000000     1.450000000
H    -0.445000000    -3.539000000     1.962000000
O    -1.841000000     2.610000000     6.337000000
H    -2.158000000     2.840000000     5.463000000
H    -2.251000000     3.252000000     6.916000000
O    -1.893000000     5.077000000     4.326000000
H    -1.871000000     4.249000000     3.847000000
H    -1.191000000     5.599000000     3.935000000
O     2.210000000    -2.450000000     2.797000000
H     2.254000000    -1.656000000     3.329000000
H     1.297000000    -2.732000000     2.862000000
O    -1.476000000    -3.914000000    -5.701000000
H    -2.122000000    -3.628000000    -5.055000000
H    -0.631000000    -3.759000000    -5.279000000
O    -4.379000000     3.791000000     1.963000000
H    -3.972000000     4.442000000     1.391000000
H    -4.864000000     3.219000000     1.369000000
O     2.037000000     2.961000000    -1.247000000
H     1.760000000     2.103000000    -0.926000000
H     2.077000000     3.508000000    -0.463000000
O     5.733000000    -0.326000000     1.129000000
H     5.433000000     0.448000000     0.652000000
H     6.056000000     0.017000000     1.962000000
O     2.603000000    -3.766000000    -1.341000000
H     3.112000000    -3.239000000    -0.725000000
H     2.192000000    -3.126000000    -1.922000000
O     4.901000000     2.228000000     0.066000000
H     4.163000000     2.726000000     0.418000000
H     5.573000000     2.888000000    -0.110000000
O     0.394000000     5.618000000     6.011000000
H    -0.176000000     4.852000000     5.936000000
H     1.258000000     5.300000000     5.752000000
O     0.794000000     2.257000000     5.668000000
H    -0.159000000     2.221000000     5.753000000
H     0.949000000     2.308000000     4.725000000
O    -0.050000000     6.782000000     2.788000000
H    -0.153000000     7.676000000     3.113000000
H     0.887000000     6.700000000     2.606000000
O     0.449000000     4.706000000     0.511000000
H     0.568000000     5.551000000     0.945000000
H     0.064000000     4.144000000     1.183000000
O    -5.929000000     2.067000000     3.892000000
H    -5.012000000     2.331000000     3.828000000
H    -5.998000000     1.299000000     3.324000000
O     4.063000000    -2.472000000     0.806000000
H     4.652000000    -1.730000000     0.672000000
H     3.618000000    -2.279000000     1.631000000
O    -5.510000000    -1.284000000    -0.762000000
H    -4.632000000    -1.505000000    -0.453000000
H    -5.990000000    -2.112000000    -0.733000000
O    -3.300000000     0.221000000    -3.528000000
H    -3.442000000     0.803000000    -2.782000000
H    -2.669000000     0.685000000    -4.078000000
O     3.853000000    -5.976000000    -2.254000000
H     4.065000000    -5.380000000    -2.972000000
H     3.515000000    -5.407000000    -1.563000000
O     0.673000000    -4.460000000    -4.042000000
H     1.440000000    -3.895000000    -3.948000000
H     0.404000000    -4.650000000    -3.143000000
O    -3.155000000    -2.535000000    -3.853000000
H    -3.249000000    -1.612000000    -3.615000000
H    -3.841000000    -2.686000000    -4.502000000
O     2.800000000    -2.830000000    -3.987000000
H     3.534000000    -3.209000000    -4.471000000
H     2.889000000    -1.886000000    -4.117000000
O     3.078000000     3.653000000     1.713000000
H     3.883000000     3.402000000     2.167000000
H     2.378000000     3.250000000     2.227000000
O     0.600000000     1.038000000     7.922000000
H     0.783000000     1.492000000     7.099000000
H     0.204000000     0.209000000     7.654000000
O     0.349000000    -4.757000000     0.625000000
H     0.176000000    -4.710000000    -0.315000000
H     1.239000000    -5.105000000     0.687000000
O     4.710000000     1.444000000    -2.702000000
H     4.382000000     2.145000000    -3.264000000
H     4.906000000     1.875000000    -1.870000000
O    -0.782000000    -5.290000000    -1.991000000
H    -1.634000000    -4.882000000    -1.838000000
H    -0.981000000    -6.215000000    -2.136000000
O    -3.139000000     2.521000000     3.817000000
H    -2.300000000     2.445000000     3.363000000
H    -3.742000000     2.857000000     3.154000000
O     4.655000000     3.090000000     3.836000000
H     5.159000000     3.851000000     4.126000000
H     5.303000000     2.392000000     3.751000000
O    -1.233000000     5.371000000    -1.467000000
H    -0.897000000     5.796000000    -2.256000000
H    -0.455000000     5.200000000    -0.938000000
O    -1.360000000     2.412000000    -3.180000000
H    -1.968000000     2.107000000    -2.506000000
H    -1.496000000     3.359000000    -3.214000000
O     4.111000000     1.928000000     6.512000000
H     3.802000000     2.482000000     5.795000000
H     3.951000000     1.034000000     6.210000000
O     1.757000000    -0.328000000     4.364000000
H     1.741000000     0.586000000     4.080000000
H     0.914000000    -0.458000000     4.800000000
O     5.618000000    -1.097000000    -3.802000000
H     5.905000000    -0.199000000    -3.636000000
H     5.166000000    -1.356000000    -2.999000000
O     3.027000000    -0.098000000    -4.355000000
H     3.866000000     0.137000000    -3.958000000
H     2.400000000     0.514000000    -3.969000000
O    -5.745000000     1.439000000     0.243000000
H    -5.511000000     0.701000000    -0.320000000
H    -6.444000000     1.101000000     0.803000000
O     1.268000000     2.015000000    -3.817000000
H     1.803000000     2.626000000    -3.310000000
H     0.384000000     2.123000000    -3.465000000
