161
-3056.67640
C     1.276000000     0.273000000     0.707000000
H     2.235000000     0.526000000     1.153000000
C     1.083000000    -0.716000000    -0.243000000
H     1.937000000    -1.376000000    -0.373000000
C    -0.127000000    -0.881000000    -0.866000000
C    -0.401000000    -1.884000000    -1.940000000
H    -0.096000000    -1.456000000    -2.898000000
H     0.136000000    -2.805000000    -1.708000000
H    -1.477000000    -2.069000000    -1.965000000
C    -1.186000000    -0.003000000    -0.523000000
H    -2.143000000    -0.266000000    -0.967000000
C    -1.041000000     0.890000000     0.511000000
H    -1.860000000     1.545000000     0.800000000
C     0.206000000     1.070000000     1.142000000
C     0.432000000     2.088000000     2.157000000
O    -0.476000000     2.821000000     2.364000000
O     1.499000000     2.241000000     2.648000000
O    -3.810000000    -4.499000000    -3.068000000
H    -4.638000000    -4.949000000    -2.899000000
H    -4.040000000    -3.570000000    -3.074000000
O    -3.246000000    -3.939000000    -0.238000000
H    -3.212000000    -4.143000000    -1.172000000
H    -2.355000000    -4.096000000     0.075000000
O     2.482000000    -0.130000000     3.660000000
H     1.883000000     0.612000000     3.580000000
H     1.936000000    -0.898000000     3.495000000
O    -1.165000000     3.509000000     7.009000000
H    -1.733000000     3.124000000     6.342000000
H    -1.764000000     3.789000000     7.701000000
O     5.203000000    -4.563000000    -0.796000000
H     4.567000000    -4.745000000    -1.488000000
H     5.817000000    -3.945000000    -1.193000000
O    -5.828000000     0.789000000     1.727000000
H    -6.052000000     0.496000000     2.610000000
H    -5.298000000     0.079000000     1.366000000
O     5.695000000    -0.997000000    -0.359000000
H     5.190000000    -1.295000000     0.398000000
H     5.222000000    -1.346000000    -1.115000000
O    -1.187000000     6.423000000     4.195000000
H    -0.375000000     6.088000000     3.815000000
H    -1.851000000     5.781000000     3.943000000
O     1.188000000     3.019000000    -1.551000000
H     2.015000000     2.566000000    -1.392000000
H     1.204000000     3.765000000    -0.951000000
O    -1.733000000     0.110000000     6.413000000
H    -0.961000000     0.585000000     6.719000000
H    -1.922000000     0.487000000     5.554000000
O     4.045000000    -1.917000000    -2.344000000
H     3.695000000    -2.807000000    -2.311000000
H     3.994000000    -1.674000000    -3.269000000
O    -3.644000000     0.222000000    -3.988000000
H    -4.383000000     0.830000000    -4.010000000
H    -3.009000000     0.595000000    -4.600000000
O    -4.759000000    -1.831000000    -2.411000000
H    -4.202000000    -1.129000000    -2.746000000
H    -5.632000000    -1.442000000    -2.362000000
O     0.919000000     1.402000000     6.517000000
H     0.513000000     2.228000000     6.781000000
H     1.566000000     1.654000000     5.858000000
O     4.471000000    -0.603000000     5.558000000
H     3.952000000    -0.041000000     4.984000000
H     3.851000000    -1.258000000     5.877000000
O     3.696000000     3.167000000     7.184000000
H     3.332000000     2.990000000     6.316000000
H     3.028000000     3.695000000     7.620000000
O     4.200000000    -2.039000000     1.817000000
H     3.387000000    -2.186000000     2.301000000
H     4.754000000    -1.548000000     2.423000000
O     3.969000000    -1.060000000    -5.201000000
H     3.711000000    -0.191000000    -4.895000000
H     3.157000000    -1.452000000    -5.522000000
O     2.471000000    -4.744000000    -3.192000000
H     3.121000000    -5.374000000    -3.502000000
H     1.900000000    -5.254000000    -2.617000000
O     4.621000000     4.683000000     3.626000000
H     5.467000000     4.596000000     4.064000000
H     4.394000000     5.607000000     3.725000000
O    -0.682000000    -4.009000000     0.907000000
H    -0.158000000    -3.208000000     0.891000000
H    -1.153000000    -3.970000000     1.739000000
O    -4.530000000    -1.356000000     0.510000000
H    -4.727000000    -1.580000000    -0.400000000
H    -4.057000000    -2.116000000     0.847000000
O     1.449000000    -2.294000000    -6.263000000
H     0.942000000    -2.475000000    -7.055000000
H     0.893000000    -2.600000000    -5.547000000
O     6.264000000     0.195000000     3.766000000
H     5.565000000    -0.154000000     4.319000000
H     6.927000000     0.502000000     4.385000000
O     1.923000000    -2.643000000     2.943000000
H     1.846000000    -3.314000000     2.265000000
H     1.520000000    -3.036000000     3.717000000
O     4.350000000     2.704000000     1.911000000
H     3.445000000     2.400000000     1.977000000
H     4.436000000     3.356000000     2.607000000
O    -3.142000000     4.553000000     3.302000000
H    -2.742000000     4.725000000     2.450000000
H    -3.989000000     4.995000000     3.263000000
O    -1.323000000    -6.372000000    -3.227000000
H    -2.232000000    -6.139000000    -3.037000000
H    -0.899000000    -6.405000000    -2.370000000
O     1.190000000     5.168000000     3.580000000
H     1.805000000     5.433000000     2.896000000
H     0.805000000     4.355000000     3.253000000
O    -2.249000000     2.207000000     4.774000000
H    -1.548000000     2.239000000     4.122000000
H    -2.806000000     2.956000000     4.564000000
O    -1.551000000     2.945000000    -1.725000000
H    -1.743000000     2.097000000    -1.325000000
H    -0.597000000     2.962000000    -1.804000000
O     3.790000000     2.230000000    -0.835000000
H     4.457000000     2.896000000    -0.668000000
H     4.143000000     1.434000000    -0.438000000
O    -2.237000000    -4.063000000    -5.545000000
H    -1.312000000    -4.282000000    -5.431000000
H    -2.694000000    -4.618000000    -4.913000000
O    -1.066000000     1.113000000    -4.950000000
H    -1.049000000     0.419000000    -5.608000000
H    -0.316000000     0.927000000    -4.385000000
O     0.589000000    -5.797000000    -0.808000000
H     1.395000000    -5.506000000    -0.380000000
H    -0.111000000    -5.498000000    -0.228000000
O    -2.532000000    -1.157000000    -6.369000000
H    -2.733000000    -1.639000000    -5.567000000
H    -3.314000000    -1.257000000    -6.911000000
O     6.978000000     2.154000000     2.136000000
H     6.739000000     1.534000000     2.825000000
H     6.141000000     2.465000000     1.792000000
O     0.231000000    -5.034000000    -5.114000000
H     0.913000000    -4.629000000    -4.577000000
H    -0.078000000    -5.774000000    -4.592000000
O     2.455000000    -3.972000000     0.706000000
H     3.228000000    -4.440000000     1.023000000
H     2.766000000    -3.082000000     0.540000000
O     2.671000000     2.912000000     4.850000000
H     2.267000000     2.757000000     3.997000000
H     3.338000000     3.578000000     4.682000000
O    -4.024000000     4.288000000    -1.914000000
H    -3.151000000     3.898000000    -1.883000000
H    -4.540000000     3.771000000    -1.296000000
O    -1.925000000    -2.078000000     2.380000000
H    -1.349000000    -1.922000000     3.128000000
H    -2.107000000    -1.204000000     2.032000000
O    -1.364000000     5.063000000     1.306000000
H    -1.023000000     4.229000000     1.628000000
H    -1.446000000     4.940000000     0.360000000
O     2.339000000     0.663000000    -3.257000000
H     2.310000000     0.307000000    -2.369000000
H     3.142000000     1.185000000    -3.280000000
O    -5.819000000     2.896000000    -0.316000000
H    -5.846000000     2.145000000     0.277000000
H    -5.945000000     3.656000000     0.253000000
O     1.230000000     6.118000000     6.173000000
H     0.383000000     6.557000000     6.251000000
H     1.207000000     5.703000000     5.310000000
O     1.036000000     5.387000000    -0.401000000
H     1.185000000     5.680000000     0.498000000
H     1.195000000     6.164000000    -0.936000000
O    -1.859000000     7.648000000     0.918000000
H    -1.531000000     6.810000000     1.243000000
H    -2.002000000     7.503000000    -0.017000000
