161
-3047.95621
C     0.589000000     0.398000000     1.253000000
H     0.806000000     0.722000000     2.267000000
C    -0.199000000    -0.788000000     1.072000000
H    -0.341000000    -1.433000000     1.936000000
C    -0.655000000    -1.022000000    -0.231000000
C    -1.455000000    -2.303000000    -0.564000000
H    -2.506000000    -2.009000000    -0.598000000
H    -1.097000000    -2.830000000    -1.451000000
H    -1.414000000    -3.034000000     0.246000000
C    -0.276000000    -0.147000000    -1.244000000
H    -0.641000000    -0.359000000    -2.246000000
C     0.472000000     1.039000000    -1.014000000
H     0.554000000     1.776000000    -1.809000000
C     0.964000000     1.290000000     0.254000000
C     1.593000000     2.549000000     0.610000000
O     2.053000000     3.269000000    -0.236000000
O     1.548000000     2.882000000     1.756000000
O    -1.106000000    -5.781000000    -2.686000000
H    -0.706000000    -5.549000000    -3.524000000
H    -2.048000000    -5.723000000    -2.846000000
O     3.867000000     4.309000000     2.591000000
H     3.079000000     3.805000000     2.388000000
H     3.681000000     5.188000000     2.261000000
O    -2.909000000    -3.256000000     2.618000000
H    -3.462000000    -3.432000000     1.857000000
H    -2.735000000    -2.315000000     2.576000000
O    -2.874000000     0.030000000    -3.644000000
H    -2.757000000    -0.032000000    -4.592000000
H    -2.198000000    -0.542000000    -3.281000000
O    -0.325000000    -4.277000000     3.585000000
H     0.381000000    -3.959000000     4.147000000
H    -1.106000000    -3.824000000     3.902000000
O    -5.776000000    -0.481000000    -3.404000000
H    -4.902000000    -0.212000000    -3.122000000
H    -5.734000000    -0.469000000    -4.360000000
O    -6.160000000     1.874000000    -0.153000000
H    -6.199000000     1.750000000    -1.102000000
H    -5.286000000     1.573000000     0.092000000
O     1.593000000    -5.407000000     1.877000000
H     1.132000000    -5.741000000     1.108000000
H     0.897000000    -5.152000000     2.482000000
O     3.089000000     1.596000000    -2.940000000
H     3.128000000     1.949000000    -2.051000000
H     3.818000000     2.016000000    -3.396000000
O     3.147000000     4.239000000     5.485000000
H     3.234000000     4.371000000     4.541000000
H     2.337000000     3.739000000     5.583000000
O    -6.206000000    -2.433000000    -0.203000000
H    -5.611000000    -2.645000000    -0.923000000
H    -6.971000000    -2.988000000    -0.354000000
O    -4.721000000    -3.903000000    -2.245000000
H    -3.822000000    -3.693000000    -2.498000000
H    -5.121000000    -4.248000000    -3.043000000
O     0.566000000     3.269000000     4.797000000
H    -0.070000000     3.976000000     4.909000000
H     0.403000000     2.937000000     3.915000000
O    -3.306000000    -0.473000000     2.917000000
H    -3.512000000     0.003000000     2.113000000
H    -4.104000000    -0.411000000     3.443000000
O     0.948000000     7.856000000    -0.971000000
H     0.538000000     8.357000000    -0.266000000
H     0.733000000     6.945000000    -0.773000000
O    -0.419000000     4.599000000     2.249000000
H    -0.285000000     4.925000000     1.359000000
H     0.251000000     3.925000000     2.360000000
O     6.294000000     3.919000000     0.653000000
H     6.014000000     4.558000000     1.309000000
H     7.110000000     4.278000000     0.303000000
O     5.386000000     2.841000000    -3.558000000
H     5.857000000     3.668000000    -3.663000000
H     6.008000000     2.265000000    -3.113000000
O     6.026000000     3.288000000     3.697000000
H     5.171000000     3.618000000     3.419000000
H     6.260000000     3.834000000     4.448000000
O     1.258000000    -1.821000000    -4.775000000
H     0.978000000    -0.905000000    -4.785000000
H     1.725000000    -1.919000000    -3.946000000
O    -1.117000000     6.919000000     3.365000000
H    -0.612000000     6.183000000     3.018000000
H    -1.920000000     6.925000000     2.844000000
O     4.081000000     0.586000000    -5.732000000
H     3.147000000     0.481000000    -5.554000000
H     4.116000000     1.144000000    -6.509000000
O     5.736000000     1.578000000     0.034000000
H     5.865000000     2.491000000     0.289000000
H     6.110000000     1.520000000    -0.845000000
O     0.464000000    -2.959000000     5.949000000
H    -0.219000000    -2.500000000     6.438000000
H     1.248000000    -2.424000000     6.072000000
O     2.746000000    -1.643000000    -2.431000000
H     3.308000000    -2.132000000    -1.830000000
H     2.309000000    -0.996000000    -1.878000000
O     3.613000000     7.174000000    -1.066000000
H     2.664000000     7.293000000    -1.024000000
H     3.733000000     6.226000000    -1.127000000
O     0.392000000     5.232000000    -0.551000000
H    -0.308000000     4.802000000    -1.042000000
H     1.114000000     4.604000000    -0.563000000
O     4.216000000     4.476000000    -1.021000000
H     3.476000000     4.005000000    -0.639000000
H     4.979000000     4.156000000    -0.539000000
O    -4.317000000     2.465000000    -2.903000000
H    -4.803000000     2.890000000    -3.610000000
H    -3.845000000     1.751000000    -3.332000000
O     5.853000000     5.592000000    -3.354000000
H     5.791000000     6.536000000    -3.206000000
H     5.223000000     5.212000000    -2.741000000
O    -2.039000000     1.839000000     4.167000000
H    -2.084000000     0.982000000     3.745000000
H    -1.371000000     1.738000000     4.845000000
O     3.568000000     6.785000000     1.794000000
H     3.432000000     6.959000000     0.863000000
H     2.731000000     7.002000000     2.203000000
O    -4.948000000    -5.195000000     0.181000000
H    -4.564000000    -4.803000000    -0.603000000
H    -5.888000000    -5.215000000     0.002000000
O    -0.927000000     4.607000000    -2.747000000
H    -0.089000000     4.428000000    -3.172000000
H    -1.580000000     4.446000000    -3.428000000
O    -3.896000000     1.542000000     1.130000000
H    -4.151000000     2.252000000     1.720000000
H    -3.373000000     1.970000000     0.452000000
O     0.240000000    -4.455000000    -4.953000000
H     0.537000000    -3.568000000    -4.748000000
H     1.037000000    -4.983000000    -4.943000000
O     4.405000000    -0.187000000     2.085000000
H     4.943000000     0.414000000     1.570000000
H     3.981000000     0.371000000     2.738000000
O     0.047000000    -6.432000000    -0.210000000
H    -0.703000000    -6.714000000     0.313000000
H    -0.333000000    -5.887000000    -0.899000000
O     1.684000000     3.968000000    -3.959000000
H     2.140000000     4.063000000    -4.796000000
H     2.316000000     3.526000000    -3.392000000
O    -3.128000000    -4.481000000    -4.654000000
H    -3.227000000    -5.040000000    -5.425000000
H    -2.578000000    -3.757000000    -4.953000000
O    -0.106000000     0.391000000     6.215000000
H    -0.862000000     0.309000000     6.797000000
H     0.619000000     0.624000000     6.795000000
O     2.279000000     1.115000000     4.181000000
H     2.498000000     1.831000000     3.585000000
H     1.687000000     1.508000000     4.821000000
O    -2.369000000    -6.028000000     1.452000000
H    -2.102000000    -5.365000000     2.088000000
H    -3.241000000    -5.752000000     1.169000000
O     2.931000000    -1.498000000     5.671000000
H     2.330000000    -0.940000000     5.177000000
H     3.315000000    -2.078000000     5.014000000
O    -3.281000000     3.786000000    -0.786000000
H    -3.516000000     3.602000000    -1.695000000
H    -2.949000000     4.683000000    -0.801000000
O     3.326000000    -2.984000000     3.358000000
H     3.483000000    -2.204000000     2.825000000
H     2.754000000    -3.531000000     2.819000000
O    -3.955000000    -3.664000000     5.111000000
H    -4.908000000    -3.573000000     5.123000000
H    -3.730000000    -3.700000000     4.181000000
O     1.060000000     0.914000000    -4.997000000
H     1.328000000     1.204000000    -4.125000000
H     0.538000000     1.639000000    -5.341000000
