161
-3038.68005
C     0.869000000     0.229000000     1.193000000
H     1.636000000     0.224000000     1.964000000
C     0.998000000    -0.834000000     0.285000000
H     1.779000000    -1.572000000     0.447000000
C     0.157000000    -0.888000000    -0.811000000
C     0.457000000    -1.830000000    -1.935000000
H    -0.487000000    -1.953000000    -2.471000000
H     1.209000000    -1.478000000    -2.644000000
H     0.668000000    -2.855000000    -1.624000000
C    -0.938000000    -0.027000000    -0.881000000
H    -1.710000000    -0.185000000    -1.630000000
C    -1.168000000     0.935000000     0.118000000
H    -2.056000000     1.552000000     0.002000000
C    -0.213000000     1.070000000     1.123000000
C    -0.367000000     2.210000000     2.042000000
O    -1.308000000     2.985000000     1.947000000
O     0.476000000     2.418000000     2.883000000
O    -2.600000000    -3.512000000    -5.261000000
H    -3.483000000    -3.275000000    -5.545000000
H    -2.390000000    -4.299000000    -5.763000000
O     0.109000000    -4.930000000     1.247000000
H     0.198000000    -4.133000000     0.724000000
H    -0.833000000    -5.023000000     1.385000000
O    -1.503000000    -2.119000000     2.328000000
H    -0.928000000    -1.415000000     2.029000000
H    -2.168000000    -2.192000000     1.643000000
O    -6.355000000    -1.016000000    -0.531000000
H    -7.310000000    -0.969000000    -0.580000000
H    -6.088000000    -0.153000000    -0.214000000
O    -5.155000000     4.728000000     2.599000000
H    -5.493000000     5.001000000     1.746000000
H    -5.206000000     5.517000000     3.139000000
O     4.303000000    -5.781000000     0.442000000
H     3.700000000    -5.620000000     1.168000000
H     4.993000000    -6.326000000     0.820000000
O     5.819000000    -3.321000000    -3.019000000
H     6.077000000    -4.238000000    -3.113000000
H     5.456000000    -3.265000000    -2.135000000
O    -0.357000000    -4.014000000     4.309000000
H    -0.586000000    -3.668000000     3.447000000
H    -0.628000000    -4.932000000     4.279000000
O     1.199000000    -1.370000000    -6.268000000
H     1.997000000    -0.849000000    -6.174000000
H     0.961000000    -1.280000000    -7.190000000
O     2.800000000    -4.886000000    -6.415000000
H     1.892000000    -5.154000000    -6.275000000
H     2.880000000    -4.055000000    -5.947000000
O    -5.292000000    -2.487000000    -5.011000000
H    -5.757000000    -1.843000000    -5.545000000
H    -4.896000000    -1.973000000    -4.307000000
O     2.454000000    -5.593000000     2.608000000
H     1.652000000    -5.412000000     2.119000000
H     2.473000000    -4.925000000     3.294000000
O    -5.326000000     1.020000000     2.773000000
H    -5.292000000     1.186000000     1.830000000
H    -4.513000000     1.396000000     3.111000000
O     0.579000000     8.163000000     1.862000000
H     0.679000000     7.212000000     1.908000000
H    -0.367000000     8.304000000     1.840000000
O    -0.818000000     4.254000000     4.416000000
H    -1.613000000     3.747000000     4.582000000
H    -0.298000000     3.700000000     3.834000000
O     4.128000000     0.347000000    -1.360000000
H     3.271000000     0.464000000    -1.772000000
H     3.928000000     0.130000000    -0.449000000
O     4.744000000     3.108000000     1.482000000
H     4.119000000     3.163000000     2.205000000
H     4.258000000     3.423000000     0.720000000
O     4.493000000    -0.977000000     1.237000000
H     3.929000000    -1.145000000     1.991000000
H     4.986000000    -0.192000000     1.475000000
O     2.587000000    -3.152000000    -4.180000000
H     2.505000000    -3.320000000    -3.241000000
H     2.735000000    -2.208000000    -4.242000000
O    -1.695000000     5.157000000     0.533000000
H    -2.647000000     5.075000000     0.467000000
H    -1.435000000     4.452000000     1.126000000
O     6.609000000     1.161000000     1.282000000
H     5.897000000     1.799000000     1.232000000
H     7.382000000     1.681000000     1.504000000
O     1.265000000     5.403000000     2.156000000
H     0.691000000     5.156000000     1.431000000
H     1.848000000     4.652000000     2.267000000
O    -3.359000000     2.977000000     6.201000000
H    -4.161000000     2.565000000     6.521000000
H    -3.497000000     3.070000000     5.258000000
O     5.961000000    -0.828000000     4.532000000
H     5.276000000    -1.120000000     3.931000000
H     6.545000000    -1.582000000     4.616000000
O     1.655000000     6.384000000     4.984000000
H     1.900000000     6.168000000     4.084000000
H     0.728000000     6.151000000     5.042000000
O    -5.669000000     1.603000000    -0.047000000
H    -4.981000000     2.166000000    -0.399000000
H    -6.460000000     2.141000000    -0.080000000
O    -3.809000000     3.039000000    -3.105000000
H    -3.401000000     2.197000000    -3.307000000
H    -4.749000000     2.872000000    -3.172000000
O    -3.261000000     0.509000000    -3.939000000
H    -2.805000000    -0.035000000    -4.581000000
H    -3.792000000    -0.108000000    -3.435000000
O     2.231000000    -4.956000000    -1.298000000
H     2.970000000    -5.140000000    -0.718000000
H     1.606000000    -5.659000000    -1.121000000
O     1.014000000    -5.853000000    -3.695000000
H     0.818000000    -5.311000000    -4.459000000
H     1.823000000    -5.484000000    -3.341000000
O     0.202000000    -4.032000000    -5.929000000
H     0.687000000    -3.207000000    -5.965000000
H    -0.606000000    -3.814000000    -5.465000000
O     3.283000000    -0.190000000    -4.273000000
H     3.172000000     0.756000000    -4.373000000
H     4.219000000    -0.305000000    -4.108000000
O     2.806000000     3.320000000     3.514000000
H     3.098000000     2.922000000     4.335000000
H     1.900000000     3.026000000     3.415000000
O    -0.904000000    -5.834000000    -1.512000000
H    -1.459000000    -6.291000000    -2.143000000
H    -0.372000000    -5.242000000    -2.045000000
O    -3.006000000    -3.989000000    -2.489000000
H    -2.749000000    -3.870000000    -3.403000000
H    -2.739000000    -4.884000000    -2.279000000
O    -3.365000000     2.787000000     3.541000000
H    -2.546000000     2.746000000     3.046000000
H    -3.877000000     3.466000000     3.101000000
O     5.219000000    -3.124000000    -0.305000000
H     4.729000000    -2.381000000     0.046000000
H     4.960000000    -3.864000000     0.245000000
O     1.645000000     1.855000000    -1.867000000
H     1.094000000     1.962000000    -2.643000000
H     1.098000000     1.368000000    -1.250000000
O     1.752000000     0.640000000     4.689000000
H     1.066000000     1.028000000     4.145000000
H     1.618000000     1.026000000     5.554000000
O     4.278000000     1.224000000     5.802000000
H     5.046000000     0.686000000     5.610000000
H     3.563000000     0.797000000     5.331000000
O    -4.522000000     4.592000000    -0.466000000
H    -5.131000000     4.973000000    -1.098000000
H    -3.814000000     4.233000000    -1.001000000
O    -0.226000000     2.337000000    -3.952000000
H    -0.321000000     2.273000000    -4.902000000
H    -1.125000000     2.363000000    -3.623000000
O    -1.393000000     7.177000000    -1.228000000
H    -1.308000000     6.593000000    -0.474000000
H    -2.023000000     6.739000000    -1.800000000
O     3.430000000    -1.398000000     3.582000000
H     2.708000000    -0.941000000     4.014000000
H     3.362000000    -2.301000000     3.892000000
O    -4.675000000    -1.706000000    -2.561000000
H    -5.207000000    -1.406000000    -1.824000000
H    -4.296000000    -2.532000000    -2.262000000
O     3.169000000     3.746000000    -0.665000000
H     2.593000000     3.098000000    -1.070000000
H     2.722000000     4.581000000    -0.801000000
O    -1.130000000     6.424000000     6.009000000
H    -2.061000000     6.646000000     6.014000000
H    -1.084000000     5.592000000     5.538000000
O    -1.697000000     0.230000000     6.513000000
H    -2.287000000     0.849000000     6.944000000
H    -0.842000000     0.659000000     6.536000000
