161
-3023.27683
C    -0.987000000    -0.818000000     0.871000000
H    -1.584000000    -1.547000000     1.413000000
C    -0.148000000    -1.345000000    -0.117000000
H    -0.068000000    -2.385000000    -0.422000000
C     0.755000000    -0.514000000    -0.822000000
C     1.712000000    -0.970000000    -1.915000000
H     1.337000000    -0.497000000    -2.825000000
H     2.683000000    -0.494000000    -1.768000000
H     1.789000000    -2.057000000    -1.993000000
C     0.742000000     0.836000000    -0.558000000
H     1.437000000     1.517000000    -1.044000000
C    -0.121000000     1.405000000     0.362000000
H    -0.144000000     2.484000000     0.496000000
C    -1.024000000     0.595000000     1.085000000
C    -1.986000000     1.112000000     2.118000000
O    -1.710000000     2.298000000     2.427000000
O    -2.687000000     0.374000000     2.698000000
O    -2.107000000    -3.596000000     3.109000000
H    -1.760000000    -3.738000000     2.229000000
H    -2.568000000    -4.408000000     3.319000000
O    -2.135000000     0.668000000     5.623000000
H    -2.207000000     0.773000000     4.674000000
H    -2.269000000    -0.268000000     5.771000000
O    -3.330000000     5.094000000     7.083000000
H    -3.011000000     4.428000000     6.474000000
H    -4.110000000     4.704000000     7.478000000
O    -2.548000000     3.544000000     4.638000000
H    -2.005000000     3.538000000     3.849000000
H    -3.106000000     2.771000000     4.550000000
O    -5.365000000     4.572000000     3.350000000
H    -5.442000000     3.931000000     2.644000000
H    -5.452000000     4.056000000     4.152000000
O     0.489000000     2.505000000     3.707000000
H     0.556000000     3.431000000     3.939000000
H    -0.228000000     2.468000000     3.074000000
O    -5.116000000     1.614000000     2.833000000
H    -4.295000000     1.215000000     2.547000000
H    -5.705000000     0.873000000     2.977000000
O     3.171000000    -2.190000000    -7.525000000
H     3.066000000    -1.913000000    -8.435000000
H     2.915000000    -1.425000000    -7.011000000
O    -4.390000000     0.336000000    -1.816000000
H    -4.963000000     1.071000000    -2.036000000
H    -4.425000000    -0.233000000    -2.585000000
O     0.129000000     0.389000000    -5.133000000
H     0.963000000     0.857000000    -5.171000000
H    -0.455000000     0.979000000    -4.656000000
O     2.225000000     2.524000000    -5.206000000
H     2.445000000     3.372000000    -5.592000000
H     3.050000000     2.206000000    -4.840000000
O     1.705000000    -5.725000000     0.283000000
H     1.816000000    -6.436000000     0.915000000
H     1.796000000    -6.148000000    -0.571000000
O    -0.192000000     7.826000000    -1.586000000
H    -0.327000000     8.426000000    -0.853000000
H    -0.076000000     6.969000000    -1.177000000
O     4.774000000    -5.123000000    -1.993000000
H     4.738000000    -4.729000000    -1.122000000
H     3.886000000    -5.443000000    -2.149000000
O     2.778000000     3.211000000     1.117000000
H     1.912000000     2.804000000     1.137000000
H     3.065000000     3.209000000     2.030000000
O    -2.552000000     6.314000000     3.856000000
H    -2.962000000     5.504000000     4.158000000
H    -1.612000000     6.154000000     3.944000000
O    -5.525000000    -0.898000000     6.284000000
H    -4.824000000    -0.867000000     5.633000000
H    -5.434000000    -0.080000000     6.773000000
O     1.574000000     5.871000000     1.582000000
H     2.109000000     5.077000000     1.618000000
H     0.917000000     5.686000000     0.911000000
O     1.977000000    -3.902000000     2.167000000
H     1.340000000    -4.343000000     1.606000000
H     1.518000000    -3.124000000     2.485000000
O    -5.075000000     5.670000000     0.295000000
H    -4.589000000     4.847000000     0.344000000
H    -4.442000000     6.338000000     0.559000000
O    -0.403000000    -5.053000000    -3.683000000
H     0.192000000    -4.306000000    -3.743000000
H    -1.208000000    -4.752000000    -4.107000000
O    -3.479000000     3.391000000     0.775000000
H    -4.338000000     3.002000000     0.940000000
H    -2.927000000     3.063000000     1.485000000
O     4.251000000    -3.626000000     0.520000000
H     3.510000000    -4.079000000     0.923000000
H     4.070000000    -2.697000000     0.662000000
O     6.212000000     0.191000000    -0.895000000
H     5.986000000     0.358000000     0.020000000
H     6.372000000     1.059000000    -1.265000000
O    -2.761000000    -4.276000000    -1.347000000
H    -3.384000000    -3.793000000    -0.805000000
H    -2.052000000    -4.509000000    -0.748000000
O    -6.925000000    -0.625000000     3.314000000
H    -6.280000000    -1.233000000     3.675000000
H    -7.401000000    -1.140000000     2.662000000
O    -3.850000000    -2.219000000     0.537000000
H    -3.952000000    -2.233000000     1.489000000
H    -3.321000000    -1.441000000     0.364000000
O    -5.828000000    -2.404000000    -1.360000000
H    -6.330000000    -1.596000000    -1.248000000
H    -5.097000000    -2.319000000    -0.748000000
O    -0.824000000    -4.576000000     0.592000000
H     0.032000000    -4.687000000     0.180000000
H    -0.940000000    -5.367000000     1.120000000
O     3.691000000    -0.998000000     0.964000000
H     4.086000000    -0.607000000     1.743000000
H     2.984000000    -0.398000000     0.727000000
O    -0.383000000     4.814000000    -3.429000000
H     0.452000000     4.365000000    -3.300000000
H    -0.988000000     4.369000000    -2.836000000
O     2.519000000    -6.677000000    -2.093000000
H     3.053000000    -7.336000000    -1.649000000
H     1.693000000    -7.123000000    -2.280000000
O     5.041000000    -1.080000000    -3.646000000
H     5.377000000    -1.825000000    -4.144000000
H     5.300000000    -1.259000000    -2.742000000
O     2.082000000     4.003000000    -1.798000000
H     2.521000000     3.303000000    -2.283000000
H     2.795000000     4.551000000    -1.471000000
O    -2.015000000    -1.902000000    -3.331000000
H    -1.821000000    -1.021000000    -3.011000000
H    -1.954000000    -2.458000000    -2.555000000
O    -3.967000000    -1.782000000     3.696000000
H    -3.433000000    -1.029000000     3.443000000
H    -3.345000000    -2.507000000     3.756000000
O     6.859000000    -2.484000000    -1.925000000
H     7.267000000    -1.623000000    -1.833000000
H     6.245000000    -2.538000000    -1.192000000
O     4.007000000     2.249000000    -2.871000000
H     4.004000000     1.351000000    -3.204000000
H     4.828000000     2.321000000    -2.385000000
O    -0.033000000     5.161000000    -0.470000000
H    -0.858000000     4.836000000    -0.831000000
H     0.629000000     4.554000000    -0.801000000
O    -2.684000000    -1.750000000     6.614000000
H    -1.891000000    -2.148000000     6.974000000
H    -3.385000000    -2.357000000     6.850000000
O    -0.617000000    -2.143000000    -5.537000000
H    -0.250000000    -1.259000000    -5.568000000
H    -1.242000000    -2.118000000    -4.813000000
O     1.743000000     0.255000000     4.499000000
H     1.345000000     1.023000000     4.089000000
H     1.110000000    -0.448000000     4.355000000
O     0.191000000     5.438000000     3.944000000
H     0.544000000     5.649000000     4.808000000
H     0.872000000     5.716000000     3.332000000
O    -2.282000000     3.998000000    -1.619000000
H    -2.890000000     3.665000000    -0.959000000
H    -2.816000000     4.100000000    -2.407000000
O    -1.539000000     1.258000000    -3.308000000
H    -2.164000000     1.719000000    -3.867000000
H    -1.707000000     1.598000000    -2.429000000
O     4.134000000     0.427000000    -5.844000000
H     4.794000000     1.108000000    -5.973000000
H     4.548000000    -0.198000000    -5.248000000
O    -5.390000000     2.638000000     5.606000000
H    -5.270000000     1.781000000     5.196000000
H    -5.579000000     2.439000000     6.523000000
O     0.314000000    -2.185000000     3.847000000
H    -0.576000000    -2.527000000     3.766000000
H     0.642000000    -2.564000000     4.663000000
