161
-3073.47594
C     0.996000000     0.978000000     0.423000000
H     1.845000000     1.647000000     0.536000000
C     1.210000000    -0.165000000    -0.392000000
H     2.198000000    -0.363000000    -0.799000000
C     0.175000000    -1.041000000    -0.649000000
C     0.431000000    -2.150000000    -1.656000000
H     1.282000000    -1.966000000    -2.315000000
H     0.557000000    -3.165000000    -1.272000000
H    -0.432000000    -2.233000000    -2.320000000
C    -1.092000000    -0.743000000    -0.097000000
H    -1.889000000    -1.455000000    -0.295000000
C    -1.236000000     0.351000000     0.708000000
H    -2.213000000     0.475000000     1.168000000
C    -0.255000000     1.279000000     0.976000000
C    -0.435000000     2.509000000     1.799000000
O    -1.534000000     2.635000000     2.311000000
O     0.398000000     3.405000000     1.876000000
O     0.441000000    -2.478000000     3.225000000
H    -0.509000000    -2.509000000     3.108000000
H     0.721000000    -3.390000000     3.157000000
O    -4.091000000     1.672000000     2.604000000
H    -3.311000000     2.180000000     2.381000000
H    -4.817000000     2.169000000     2.226000000
O    -2.217000000     3.427000000     4.865000000
H    -2.389000000     2.980000000     4.037000000
H    -1.264000000     3.514000000     4.897000000
O    -1.488000000     5.471000000     2.076000000
H    -1.287000000     5.548000000     3.009000000
H    -0.802000000     4.900000000     1.730000000
O    -2.611000000     5.686000000    -1.248000000
H    -1.791000000     6.077000000    -0.947000000
H    -2.421000000     5.386000000    -2.137000000
O    -2.166000000    -2.783000000     2.543000000
H    -2.660000000    -2.180000000     3.099000000
H    -2.008000000    -2.290000000     1.738000000
O    -3.047000000     3.530000000     0.276000000
H    -2.820000000     4.337000000    -0.187000000
H    -2.461000000     3.517000000     1.034000000
O     4.745000000     3.235000000    -3.337000000
H     4.545000000     3.697000000    -4.151000000
H     3.960000000     3.345000000    -2.800000000
O     0.840000000    -3.180000000    -6.149000000
H     1.352000000    -2.524000000    -5.676000000
H     1.289000000    -3.272000000    -6.990000000
O    -6.401000000    -2.146000000     1.397000000
H    -6.045000000    -1.620000000     2.113000000
H    -5.632000000    -2.429000000     0.903000000
O    -5.921000000    -0.142000000     3.284000000
H    -6.682000000     0.395000000     3.062000000
H    -5.183000000     0.305000000     2.868000000
O    -0.101000000     7.304000000    -0.423000000
H     0.256000000     7.776000000     0.329000000
H     0.624000000     6.761000000    -0.732000000
O     2.089000000     3.081000000    -2.338000000
H     1.272000000     2.596000000    -2.220000000
H     2.034000000     3.800000000    -1.709000000
O     0.290000000    -7.086000000     0.626000000
H     0.475000000    -7.586000000    -0.169000000
H     1.000000000    -6.447000000     0.678000000
O     3.382000000    -4.170000000    -1.692000000
H     2.873000000    -4.565000000    -2.400000000
H     3.771000000    -3.388000000    -2.084000000
O     2.448000000     2.491000000     3.045000000
H     1.688000000     2.857000000     2.593000000
H     2.137000000     1.657000000     3.399000000
O     1.452000000     4.712000000    -0.267000000
H     1.809000000     5.455000000     0.221000000
H     1.129000000     4.115000000     0.408000000
O     4.307000000     2.726000000    -0.147000000
H     3.526000000     2.554000000    -0.673000000
H     4.791000000     1.901000000    -0.160000000
O     3.610000000    -4.823000000     2.624000000
H     2.940000000    -4.770000000     1.942000000
H     4.402000000    -5.095000000     2.160000000
O    -2.429000000    -4.920000000    -5.129000000
H    -2.954000000    -4.911000000    -4.328000000
H    -3.039000000    -4.659000000    -5.818000000
O    -2.920000000     2.690000000     7.472000000
H    -2.097000000     2.929000000     7.898000000
H    -2.752000000     2.816000000     6.539000000
O    -3.948000000    -3.449000000     0.156000000
H    -3.320000000    -4.082000000     0.503000000
H    -3.823000000    -3.484000000    -0.793000000
O    -1.707000000    -5.196000000    -0.174000000
H    -1.221000000    -5.836000000     0.345000000
H    -1.915000000    -5.656000000    -0.988000000
O     4.777000000     1.692000000     4.705000000
H     4.213000000     1.133000000     5.239000000
H     4.175000000     2.152000000     4.121000000
O    -5.478000000    -0.355000000    -2.690000000
H    -4.993000000    -0.125000000    -1.897000000
H    -5.261000000    -1.275000000    -2.845000000
O    -2.539000000     0.929000000    -4.078000000
H    -3.217000000     0.258000000    -4.003000000
H    -1.840000000     0.509000000    -4.579000000
O    -2.744000000    -5.660000000     2.782000000
H    -3.321000000    -5.117000000     3.320000000
H    -2.244000000    -5.033000000     2.260000000
O     0.444000000     6.954000000     4.124000000
H     0.354000000     6.126000000     4.596000000
H     1.229000000     7.357000000     4.494000000
O     5.727000000     0.448000000    -3.373000000
H     5.760000000     1.118000000    -2.691000000
H     5.989000000     0.906000000    -4.172000000
O    -4.120000000     1.405000000    -1.162000000
H    -4.020000000     1.783000000    -2.036000000
H    -3.763000000     2.068000000    -0.572000000
O    -1.658000000    -1.860000000    -5.813000000
H    -1.352000000    -1.140000000    -6.366000000
H    -0.910000000    -2.455000000    -5.759000000
O     1.897000000     6.578000000     1.710000000
H     2.570000000     5.959000000     1.993000000
H     1.182000000     6.457000000     2.335000000
O     0.700000000     4.189000000     4.982000000
H     1.119000000     3.684000000     4.285000000
H     1.190000000     3.959000000     5.772000000
O     2.130000000     1.810000000    -4.924000000
H     2.333000000     1.770000000    -3.989000000
H     2.101000000     2.746000000    -5.122000000
O    -0.498000000     2.137000000    -2.286000000
H    -1.353000000     2.136000000    -2.717000000
H    -0.635000000     1.638000000    -1.481000000
O    -0.388000000     0.794000000    -6.053000000
H     0.415000000     0.975000000    -5.564000000
H    -0.112000000     0.778000000    -6.970000000
O    -4.419000000     5.571000000     3.749000000
H    -3.622000000     5.417000000     3.242000000
H    -4.359000000     6.488000000     4.016000000
O     2.132000000    -5.247000000    -3.808000000
H     1.760000000    -4.491000000    -4.263000000
H     1.802000000    -6.004000000    -4.292000000
O     1.481000000     0.320000000     4.107000000
H     2.040000000     0.018000000     4.822000000
H     0.974000000    -0.452000000     3.857000000
O     4.490000000    -1.903000000    -2.652000000
H     4.589000000    -1.668000000    -1.729000000
H     4.964000000    -1.219000000    -3.125000000
O     4.558000000    -0.823000000    -0.088000000
H     5.182000000    -1.101000000     0.583000000
H     3.700000000    -0.949000000     0.317000000
O     5.208000000     4.990000000     0.945000000
H     4.763000000     4.221000000     0.590000000
H     6.030000000     5.038000000     0.458000000
O    -3.750000000    -5.314000000    -2.931000000
H    -4.591000000    -5.770000000    -2.902000000
H    -3.955000000    -4.417000000    -2.669000000
O     1.905000000    -4.827000000     0.583000000
H     1.249000000    -4.199000000     0.282000000
H     2.687000000    -4.620000000     0.072000000
O     3.254000000    -2.047000000     2.177000000
H     2.323000000    -1.950000000     2.377000000
H     3.512000000    -2.856000000     2.618000000
O    -1.953000000     0.031000000     4.098000000
H    -1.712000000     0.874000000     3.714000000
H    -2.743000000     0.217000000     4.606000000
O     5.600000000    -0.859000000     2.965000000
H     4.687000000    -1.095000000     2.801000000
H     5.587000000     0.092000000     3.068000000
O     2.646000000    -1.848000000    -4.881000000
H     3.296000000    -1.439000000    -5.452000000
H     2.926000000    -1.617000000    -3.996000000
