161
-3041.09013
C     0.487000000     1.294000000    -0.677000000
H     0.620000000     2.198000000    -1.266000000
C     0.348000000     0.041000000    -1.311000000
H     0.447000000    -0.012000000    -2.392000000
C    -0.060000000    -1.146000000    -0.591000000
C    -0.382000000    -2.462000000    -1.236000000
H    -1.055000000    -3.004000000    -0.568000000
H    -0.830000000    -2.266000000    -2.213000000
H     0.586000000    -2.948000000    -1.374000000
C    -0.238000000    -0.998000000     0.768000000
H    -0.577000000    -1.843000000     1.361000000
C    -0.154000000     0.280000000     1.448000000
H    -0.360000000     0.248000000     2.515000000
C     0.248000000     1.385000000     0.760000000
C     0.352000000     2.700000000     1.465000000
O    -0.155000000     2.861000000     2.508000000
O     0.721000000     3.664000000     0.807000000
O    -1.819000000     0.609000000     7.072000000
H    -1.930000000     0.202000000     6.213000000
H    -2.266000000     1.452000000     6.997000000
O     3.497000000    -3.360000000    -0.707000000
H     4.198000000    -2.813000000    -1.060000000
H     3.890000000    -4.229000000    -0.622000000
O    -2.754000000     0.703000000     0.045000000
H    -2.991000000     1.630000000     0.004000000
H    -1.878000000     0.697000000     0.432000000
O    -5.121000000    -2.901000000    -3.399000000
H    -5.404000000    -2.725000000    -4.296000000
H    -4.281000000    -3.349000000    -3.496000000
O    -2.638000000     1.973000000     3.233000000
H    -1.787000000     2.393000000     3.111000000
H    -2.465000000     1.040000000     3.107000000
O     3.097000000     3.029000000    -0.070000000
H     2.263000000     3.261000000     0.340000000
H     2.936000000     2.176000000    -0.474000000
O    -0.699000000     5.304000000     3.463000000
H     0.189000000     5.438000000     3.791000000
H    -0.636000000     4.525000000     2.910000000
O    -0.284000000    -2.987000000    -7.142000000
H    -0.206000000    -2.393000000    -6.396000000
H    -1.212000000    -2.957000000    -7.377000000
O    -0.269000000     5.986000000    -4.018000000
H    -0.292000000     6.930000000    -3.860000000
H     0.186000000     5.627000000    -3.256000000
O     3.068000000    -1.160000000     1.222000000
H     2.725000000    -0.472000000     0.653000000
H     2.944000000    -1.968000000     0.723000000
O     0.774000000     2.169000000     4.991000000
H     0.565000000     2.240000000     4.060000000
H     0.133000000     1.546000000     5.334000000
O    -2.103000000     0.536000000    -4.503000000
H    -2.565000000     0.400000000    -5.330000000
H    -2.791000000     0.515000000    -3.838000000
O    -0.187000000    -3.871000000     4.238000000
H    -0.843000000    -3.875000000     3.541000000
H    -0.643000000    -3.504000000     4.995000000
O    -0.206000000    -1.645000000    -4.741000000
H     0.486000000    -0.983000000    -4.734000000
H    -0.921000000    -1.249000000    -4.241000000
O     4.797000000    -5.763000000    -2.311000000
H     5.140000000    -6.273000000    -3.045000000
H     4.112000000    -5.217000000    -2.697000000
O    -5.078000000    -0.235000000     3.532000000
H    -5.924000000     0.136000000     3.282000000
H    -4.605000000    -0.334000000     2.706000000
O    -2.393000000    -3.551000000    -4.708000000
H    -1.558000000    -3.146000000    -4.475000000
H    -2.699000000    -3.050000000    -5.465000000
O     0.369000000     4.838000000    -1.488000000
H     0.665000000     4.583000000    -0.614000000
H    -0.417000000     4.313000000    -1.637000000
O    -1.834000000     3.813000000    -2.267000000
H    -2.449000000     3.437000000    -1.637000000
H    -2.348000000     4.466000000    -2.743000000
O     0.644000000     3.464000000     7.503000000
H     0.865000000     3.070000000     6.658000000
H    -0.260000000     3.762000000     7.399000000
O    -2.553000000    -6.013000000     0.660000000
H    -3.135000000    -5.323000000     0.979000000
H    -1.836000000    -6.033000000     1.294000000
O     0.176000000    -6.585000000    -1.938000000
H     0.633000000    -6.131000000    -1.229000000
H     0.156000000    -5.950000000    -2.654000000
O    -0.189000000     2.351000000    -4.172000000
H    -0.458000000     3.057000000    -3.585000000
H    -0.955000000     1.778000000    -4.225000000
O     1.555000000    -1.191000000     3.945000000
H     2.156000000    -0.927000000     3.248000000
H     1.871000000    -2.051000000     4.220000000
O     5.693000000     3.566000000    -1.228000000
H     4.825000000     3.317000000    -0.910000000
H     5.532000000     4.316000000    -1.801000000
O     2.528000000     6.144000000     1.356000000
H     2.689000000     6.094000000     2.298000000
H     1.834000000     5.505000000     1.197000000
O     3.637000000     4.030000000     5.768000000
H     3.297000000     3.463000000     5.076000000
H     3.762000000     3.446000000     6.516000000
O     3.207000000     1.054000000     5.726000000
H     2.936000000     0.472000000     6.435000000
H     2.410000000     1.197000000     5.215000000
O    -0.569000000     7.560000000    -0.465000000
H    -0.350000000     6.630000000    -0.513000000
H    -0.451000000     7.787000000     0.457000000
O     3.234000000    -3.839000000    -3.986000000
H     2.938000000    -3.152000000    -3.390000000
H     3.843000000    -3.397000000    -4.578000000
O     1.616000000     0.370000000    -4.661000000
H     1.135000000     1.143000000    -4.365000000
H     2.194000000     0.697000000    -5.350000000
O    -4.102000000    -1.495000000     0.810000000
H    -4.939000000    -1.614000000     0.361000000
H    -3.687000000    -0.763000000     0.355000000
O    -4.409000000    -4.140000000     1.396000000
H    -4.355000000    -3.291000000     0.958000000
H    -5.295000000    -4.168000000     1.758000000
O     0.167000000    -4.900000000    -4.118000000
H     0.510000000    -5.283000000    -4.926000000
H     0.657000000    -4.085000000    -4.013000000
O    -4.066000000     0.524000000    -2.533000000
H    -3.593000000     0.301000000    -1.731000000
H    -4.470000000     1.371000000    -2.346000000
O    -4.416000000     3.699000000     4.662000000
H    -4.060000000     4.585000000     4.590000000
H    -3.911000000     3.187000000     4.031000000
O    -1.259000000    -0.460000000     4.717000000
H    -1.787000000    -1.190000000     4.393000000
H    -0.365000000    -0.675000000     4.452000000
O    -0.496000000     7.963000000     2.242000000
H    -0.003000000     8.241000000     3.014000000
H    -0.618000000     7.021000000     2.362000000
O     3.768000000     3.635000000     2.545000000
H     3.989000000     2.777000000     2.183000000
H     3.533000000     4.163000000     1.782000000
O    -3.411000000     6.289000000     4.354000000
H    -2.661000000     6.392000000     3.769000000
H    -3.965000000     7.048000000     4.170000000
O     3.536000000     0.392000000    -1.338000000
H     3.829000000    -0.486000000    -1.584000000
H     2.855000000     0.604000000    -1.975000000
O    -2.969000000     3.358000000     0.254000000
H    -2.487000000     3.616000000     1.039000000
H    -3.888000000     3.501000000     0.480000000
O    -2.607000000    -5.294000000    -2.465000000
H    -2.084000000    -4.894000000    -3.159000000
H    -2.013000000    -5.340000000    -1.715000000
O     2.032000000     6.067000000     4.632000000
H     2.575000000     6.847000000     4.751000000
H     2.623000000     5.335000000     4.807000000
O    -0.716000000    -6.323000000     2.988000000
H    -0.444000000    -5.799000000     3.741000000
H    -0.068000000    -7.026000000     2.939000000
O     1.944000000    -5.575000000    -0.240000000
H     2.043000000    -4.652000000    -0.472000000
H     2.510000000    -5.693000000     0.523000000
O    -2.523000000    -2.594000000     3.734000000
H    -3.091000000    -2.792000000     4.480000000
H    -3.127000000    -2.458000000     3.004000000
O    -2.211000000    -8.024000000    -0.957000000
H    -2.616000000    -7.339000000    -0.424000000
H    -1.367000000    -7.656000000    -1.219000000
