161
-3041.47128
C     0.482000000     1.211000000    -0.692000000
H     0.689000000     1.868000000    -1.533000000
C     0.945000000    -0.074000000    -0.917000000
H     1.601000000    -0.298000000    -1.754000000
C     0.439000000    -1.125000000    -0.188000000
C     0.916000000    -2.555000000    -0.447000000
H     1.209000000    -2.471000000    -1.496000000
H     1.785000000    -2.880000000     0.129000000
H     0.120000000    -3.296000000    -0.359000000
C    -0.497000000    -0.865000000     0.858000000
H    -0.806000000    -1.610000000     1.588000000
C    -0.877000000     0.450000000     1.098000000
H    -1.539000000     0.526000000     1.957000000
C    -0.494000000     1.482000000     0.277000000
C    -1.160000000     2.863000000     0.439000000
O    -2.028000000     2.984000000     1.306000000
O    -0.792000000     3.785000000    -0.274000000
O     4.301000000    -2.639000000     1.801000000
H     3.610000000    -3.296000000     1.881000000
H     3.841000000    -1.801000000     1.856000000
O    -4.474000000    -1.258000000     1.275000000
H    -3.832000000    -1.386000000     1.974000000
H    -4.712000000    -0.333000000     1.336000000
O    -1.673000000     3.442000000     4.109000000
H    -1.639000000     3.213000000     3.180000000
H    -1.455000000     2.630000000     4.565000000
O     3.111000000     2.688000000     2.512000000
H     3.977000000     2.798000000     2.119000000
H     3.043000000     3.402000000     3.145000000
O    -6.484000000     1.282000000     0.866000000
H    -5.716000000     1.738000000     0.522000000
H    -6.659000000     1.707000000     1.706000000
O     1.707000000     1.965000000     5.183000000
H     1.681000000     2.143000000     4.243000000
H     1.201000000     2.676000000     5.576000000
O     0.588000000     0.440000000    -4.391000000
H     1.163000000    -0.039000000    -4.989000000
H     0.521000000    -0.124000000    -3.621000000
O     3.487000000     1.531000000    -5.137000000
H     3.314000000     0.640000000    -5.440000000
H     3.916000000     1.416000000    -4.289000000
O    -2.770000000    -5.539000000    -3.498000000
H    -2.363000000    -5.290000000    -2.668000000
H    -2.880000000    -4.713000000    -3.968000000
O     5.562000000    -4.684000000     3.394000000
H     5.116000000    -4.059000000     2.823000000
H     5.518000000    -5.515000000     2.921000000
O    -3.162000000    -0.862000000     3.607000000
H    -3.072000000     0.091000000     3.600000000
H    -3.830000000    -1.035000000     4.270000000
O     2.414000000    -1.085000000    -5.622000000
H     3.266000000    -1.399000000    -5.923000000
H     1.977000000    -1.866000000    -5.281000000
O     0.951000000    -5.614000000     0.055000000
H     0.779000000    -5.307000000     0.945000000
H     0.090000000    -5.631000000    -0.363000000
O     3.249000000     6.735000000     0.194000000
H     3.268000000     5.779000000     0.149000000
H     2.343000000     6.947000000     0.415000000
O     2.021000000     4.404000000     0.030000000
H     1.093000000     4.193000000    -0.068000000
H     2.292000000     3.934000000     0.819000000
O     0.660000000     8.000000000    -1.229000000
H     0.024000000     7.804000000    -0.541000000
H     1.037000000     8.842000000    -0.975000000
O    -3.315000000    -5.065000000     2.227000000
H    -2.644000000    -4.405000000     2.399000000
H    -4.095000000    -4.560000000     1.994000000
O     2.843000000    -4.952000000     2.865000000
H     2.845000000    -4.979000000     3.822000000
H     1.919000000    -4.870000000     2.630000000
O    -1.526000000    -1.508000000    -3.134000000
H    -2.234000000    -1.981000000    -3.571000000
H    -1.954000000    -1.052000000    -2.410000000
O    -2.822000000    -0.003000000    -1.288000000
H    -3.246000000     0.841000000    -1.131000000
H    -2.013000000     0.038000000    -0.779000000
O    -4.977000000     4.315000000     1.764000000
H    -5.874000000     4.199000000     2.077000000
H    -5.076000000     4.670000000     0.880000000
O     2.540000000     4.028000000    -3.217000000
H     2.883000000     4.043000000    -4.110000000
H     3.311000000     3.892000000    -2.667000000
O     2.035000000    -4.016000000    -4.213000000
H     2.745000000    -4.548000000    -4.573000000
H     1.334000000    -4.643000000    -4.036000000
O    -4.340000000    -2.266000000    -1.423000000
H    -4.151000000    -2.451000000    -0.503000000
H    -4.005000000    -1.380000000    -1.563000000
O     0.131000000     3.221000000    -4.011000000
H     0.266000000     2.309000000    -4.270000000
H     0.941000000     3.463000000    -3.561000000
O    -1.420000000    -3.005000000     3.564000000
H    -0.724000000    -2.948000000     4.218000000
H    -2.053000000    -2.338000000     3.829000000
O    -1.701000000    -0.209000000    -5.826000000
H    -0.842000000    -0.294000000    -5.414000000
H    -2.190000000     0.372000000    -5.244000000
O     3.333000000    -5.086000000    -1.534000000
H     3.043000000    -4.258000000    -1.918000000
H     2.608000000    -5.356000000    -0.970000000
O    -4.045000000     2.376000000    -0.302000000
H    -3.900000000     2.975000000    -1.034000000
H    -3.377000000     2.616000000     0.340000000
O    -1.703000000    -5.312000000    -0.736000000
H    -2.052000000    -4.905000000     0.057000000
H    -2.045000000    -6.206000000    -0.716000000
O     5.448000000    -1.353000000    -0.449000000
H     5.283000000    -1.606000000     0.460000000
H     5.946000000    -0.538000000    -0.384000000
O    -2.628000000     1.805000000    -4.110000000
H    -3.444000000     2.301000000    -4.177000000
H    -1.991000000     2.435000000    -3.774000000
O    -5.169000000     5.517000000    -0.868000000
H    -4.240000000     5.565000000    -1.095000000
H    -5.540000000     4.904000000    -1.502000000
O    -2.083000000     1.190000000     5.987000000
H    -1.967000000     0.254000000     6.149000000
H    -1.667000000     1.616000000     6.737000000
O    -3.398000000     4.755000000     5.925000000
H    -2.717000000     4.264000000     5.465000000
H    -2.985000000     5.590000000     6.145000000
O     2.891000000    -0.231000000     1.464000000
H     1.947000000    -0.140000000     1.333000000
H     3.151000000     0.578000000     1.905000000
O    -2.780000000     5.625000000     2.760000000
H    -2.601000000     5.177000000     3.587000000
H    -3.437000000     5.079000000     2.329000000
O    -1.376000000     6.315000000     0.230000000
H    -0.871000000     5.510000000     0.119000000
H    -1.848000000     6.191000000     1.053000000
O    -2.736000000     6.833000000    -2.129000000
H    -2.134000000     7.490000000    -2.478000000
H    -2.351000000     6.577000000    -1.290000000
O    -3.987000000     1.710000000     2.783000000
H    -4.818000000     2.179000000     2.861000000
H    -3.386000000     2.350000000     2.402000000
O     1.638000000    -8.108000000    -0.823000000
H     1.366000000    -7.236000000    -0.537000000
H     1.005000000    -8.347000000    -1.500000000
O    -2.805000000     4.090000000    -2.016000000
H    -2.621000000     4.771000000    -2.663000000
H    -1.995000000     4.014000000    -1.511000000
O    -4.697000000     1.388000000     5.516000000
H    -3.765000000     1.604000000     5.548000000
H    -4.819000000     0.980000000     4.659000000
O     4.261000000     0.638000000    -2.406000000
H     3.629000000     0.433000000    -1.717000000
H     4.632000000     1.482000000    -2.148000000
O     6.311000000    -4.079000000    -1.481000000
H     6.138000000    -3.180000000    -1.201000000
H     5.562000000    -4.579000000    -1.160000000
O     0.129000000    -5.164000000     2.665000000
H    -0.280000000    -6.027000000     2.735000000
H    -0.602000000    -4.548000000     2.706000000
O     4.936000000    -1.892000000    -3.370000000
H     4.894000000    -2.192000000    -2.462000000
H     4.901000000    -0.937000000    -3.309000000
O     0.289000000    -2.848000000     5.605000000
H    -0.037000000    -2.178000000     6.206000000
H     1.233000000    -2.874000000     5.764000000
