161
-3042.79142
C     1.056000000     0.655000000     0.689000000
H     1.888000000     1.094000000     1.233000000
C     1.092000000    -0.602000000     0.044000000
H     2.022000000    -1.162000000    -0.004000000
C    -0.001000000    -1.042000000    -0.606000000
C     0.120000000    -2.389000000    -1.411000000
H    -0.895000000    -2.761000000    -1.570000000
H     0.724000000    -2.360000000    -2.320000000
H     0.551000000    -3.079000000    -0.683000000
C    -1.202000000    -0.348000000    -0.495000000
H    -2.051000000    -0.754000000    -1.039000000
C    -1.213000000     0.824000000     0.172000000
H    -2.151000000     1.363000000     0.060000000
C    -0.085000000     1.407000000     0.749000000
C    -0.001000000     2.677000000     1.541000000
O    -0.946000000     3.452000000     1.553000000
O     1.086000000     3.030000000     2.088000000
O     4.729000000    -1.952000000     2.048000000
H     4.429000000    -1.968000000     1.140000000
H     5.528000000    -2.479000000     2.046000000
O    -2.516000000     2.487000000     4.014000000
H    -2.097000000     3.164000000     3.483000000
H    -2.006000000     2.466000000     4.823000000
O     1.501000000     2.769000000     4.672000000
H     1.019000000     2.601000000     3.862000000
H     1.761000000     3.688000000     4.610000000
O    -0.930000000     5.073000000     3.583000000
H    -0.118000000     5.179000000     4.078000000
H    -0.708000000     4.451000000     2.890000000
O    -5.831000000     5.084000000     0.201000000
H    -5.440000000     5.284000000    -0.650000000
H    -5.084000000     4.902000000     0.771000000
O    -0.878000000    -1.408000000     3.001000000
H    -0.973000000    -1.224000000     2.066000000
H    -1.145000000    -2.323000000     3.093000000
O     4.900000000     1.860000000     0.187000000
H     4.431000000     1.354000000     0.850000000
H     4.282000000     2.542000000    -0.075000000
O     2.468000000     1.120000000     6.650000000
H     2.401000000     1.995000000     7.031000000
H     2.353000000     1.259000000     5.710000000
O     2.020000000     3.585000000    -2.463000000
H     2.961000000     3.747000000    -2.396000000
H     1.641000000     4.065000000    -1.727000000
O     1.788000000    -1.395000000    -6.660000000
H     1.837000000    -0.488000000    -6.359000000
H     2.027000000    -1.353000000    -7.586000000
O    -4.547000000    -1.024000000     0.160000000
H    -4.344000000    -0.475000000     0.917000000
H    -4.882000000    -1.837000000     0.537000000
O    -2.406000000    -5.515000000    -5.022000000
H    -2.313000000    -4.650000000    -5.421000000
H    -1.717000000    -5.548000000    -4.359000000
O    -3.631000000     0.220000000     2.577000000
H    -3.300000000    -0.488000000     3.129000000
H    -3.328000000     1.020000000     3.006000000
O    -3.458000000     0.995000000    -4.070000000
H    -2.601000000     0.833000000    -4.464000000
H    -4.051000000     0.406000000    -4.537000000
O    -6.793000000     2.210000000     1.429000000
H    -7.222000000     2.769000000     2.077000000
H    -5.941000000     2.621000000     1.284000000
O     0.299000000     5.482000000    -0.496000000
H     1.115000000     5.976000000    -0.425000000
H     0.156000000     5.128000000     0.382000000
O    -1.754000000     4.528000000    -2.070000000
H    -0.978000000     4.867000000    -1.623000000
H    -1.749000000     3.590000000    -1.880000000
O     1.321000000    -6.016000000     3.043000000
H     1.736000000    -5.442000000     2.400000000
H     1.554000000    -6.900000000     2.761000000
O     4.414000000    -2.321000000    -0.689000000
H     5.178000000    -2.849000000    -0.923000000
H     4.192000000    -1.852000000    -1.493000000
O     4.794000000     2.014000000     4.101000000
H     4.100000000     2.645000000     4.296000000
H     4.333000000     1.252000000     3.751000000
O     3.109000000     3.902000000     0.584000000
H     3.124000000     4.857000000     0.519000000
H     2.259000000     3.702000000     0.976000000
O     2.844000000     6.583000000    -0.337000000
H     2.861000000     7.453000000     0.062000000
H     3.640000000     6.548000000    -0.868000000
O    -0.847000000     2.399000000     6.181000000
H    -1.265000000     1.540000000     6.136000000
H     0.054000000     2.243000000     5.897000000
O    -0.988000000    -4.067000000     2.850000000
H    -1.223000000    -4.624000000     2.108000000
H    -0.216000000    -4.486000000     3.229000000
O     0.811000000    -6.846000000     0.200000000
H     1.507000000    -6.482000000    -0.346000000
H     1.250000000    -7.093000000     1.015000000
O    -3.867000000     2.703000000    -2.000000000
H    -4.824000000     2.682000000    -1.989000000
H    -3.624000000     2.136000000    -2.732000000
O     1.113000000    -6.852000000    -5.023000000
H     0.892000000    -5.931000000    -5.164000000
H     1.973000000    -6.830000000    -4.605000000
O    -6.446000000     0.134000000    -1.443000000
H    -5.676000000    -0.313000000    -1.090000000
H    -6.333000000     1.048000000    -1.181000000
O    -4.876000000     3.409000000     3.005000000
H    -4.429000000     3.790000000     2.249000000
H    -4.277000000     2.733000000     3.322000000
O     0.483000000    -3.471000000    -5.237000000
H     0.923000000    -2.824000000    -5.788000000
H    -0.390000000    -3.106000000    -5.089000000
O    -1.543000000    -0.193000000     5.721000000
H    -2.238000000    -0.852000000     5.745000000
H    -1.261000000    -0.177000000     4.806000000
O     3.665000000    -4.021000000     3.814000000
H     2.816000000    -3.597000000     3.694000000
H     4.299000000    -3.390000000     3.472000000
O     2.497000000     1.028000000    -5.647000000
H     3.440000000     1.080000000    -5.801000000
H     2.408000000     1.048000000    -4.694000000
O     2.099000000     0.857000000    -2.907000000
H     1.817000000     1.747000000    -2.696000000
H     1.974000000     0.366000000    -2.095000000
O    -3.330000000     4.478000000     1.094000000
H    -2.427000000     4.202000000     1.249000000
H    -3.372000000     4.642000000     0.151000000
O    -2.814000000    -4.934000000    -0.418000000
H    -2.993000000    -4.058000000    -0.760000000
H    -2.347000000    -5.376000000    -1.127000000
O    -1.559000000    -6.274000000     1.579000000
H    -2.157000000    -5.841000000     0.970000000
H    -0.799000000    -6.506000000     1.045000000
O    -4.499000000     5.476000000    -2.133000000
H    -4.118000000     4.599000000    -2.166000000
H    -3.883000000     6.024000000    -2.619000000
O    -3.038000000     6.923000000     3.122000000
H    -2.629000000     7.427000000     3.826000000
H    -2.342000000     6.347000000     2.805000000
O     3.012000000    -5.743000000    -1.609000000
H     3.663000000    -6.390000000    -1.882000000
H     3.036000000    -5.075000000    -2.294000000
O     2.844000000    -3.832000000    -3.464000000
H     3.259000000    -2.970000000    -3.428000000
H     2.060000000    -3.699000000    -3.996000000
O    -0.449000000     0.264000000    -5.384000000
H    -0.619000000     0.375000000    -6.319000000
H     0.263000000     0.876000000    -5.196000000
O     3.351000000    -0.146000000     3.573000000
H     2.604000000    -0.691000000     3.823000000
H     3.935000000    -0.742000000     3.104000000
O     5.617000000     4.412000000     1.721000000
H     4.916000000     3.858000000     1.375000000
H     6.122000000     4.669000000     0.950000000
O     2.694000000    -4.298000000     0.599000000
H     3.028000000    -4.894000000    -0.072000000
H     3.055000000    -3.444000000     0.361000000
O     1.540000000    -2.279000000     4.272000000
H     0.684000000    -2.178000000     3.856000000
H     1.431000000    -1.897000000     5.142000000
O     3.894000000    -1.342000000    -3.307000000
H     3.337000000    -0.717000000    -3.771000000
H     4.764000000    -0.944000000    -3.320000000
O    -0.698000000    -5.341000000    -2.751000000
H    -0.292000000    -4.564000000    -3.136000000
H    -0.003000000    -5.740000000    -2.229000000
