161
-3053.79471
C     1.057000000     1.068000000     0.054000000
H     1.922000000     1.726000000     0.058000000
C     0.939000000     0.062000000    -0.898000000
H     1.682000000     0.020000000    -1.690000000
C    -0.060000000    -0.902000000    -0.839000000
C    -0.023000000    -2.119000000    -1.784000000
H    -0.061000000    -1.767000000    -2.817000000
H     0.788000000    -2.818000000    -1.567000000
H    -0.899000000    -2.668000000    -1.434000000
C    -1.099000000    -0.781000000     0.126000000
H    -1.908000000    -1.506000000     0.095000000
C    -0.973000000     0.231000000     1.099000000
H    -1.742000000     0.343000000     1.859000000
C     0.093000000     1.135000000     1.105000000
C     0.094000000     2.358000000     1.962000000
O    -0.809000000     2.433000000     2.764000000
O     0.998000000     3.177000000     1.913000000
O    -5.892000000    -1.920000000     1.163000000
H    -5.292000000    -1.492000000     0.552000000
H    -5.322000000    -2.293000000     1.836000000
O    -0.020000000    -3.655000000     2.723000000
H    -0.087000000    -3.815000000     1.782000000
H     0.438000000    -2.818000000     2.792000000
O    -1.507000000     4.954000000     2.921000000
H    -1.422000000     5.265000000     3.822000000
H    -1.071000000     4.102000000     2.921000000
O     3.324000000    -3.612000000     1.577000000
H     3.298000000    -3.582000000     0.621000000
H     2.647000000    -2.994000000     1.854000000
O     3.184000000     4.578000000     1.164000000
H     2.741000000     4.868000000     0.366000000
H     2.541000000     4.024000000     1.607000000
O    -2.705000000     3.334000000    -2.657000000
H    -2.978000000     2.776000000    -1.929000000
H    -2.550000000     4.190000000    -2.258000000
O    -1.884000000     1.404000000     4.898000000
H    -1.150000000     1.559000000     5.493000000
H    -1.621000000     1.824000000     4.079000000
O     1.526000000    -7.770000000    -1.283000000
H     2.133000000    -7.182000000    -1.733000000
H     2.089000000    -8.337000000    -0.756000000
O     5.154000000    -1.632000000    -2.510000000
H     4.949000000    -0.699000000    -2.441000000
H     6.105000000    -1.661000000    -2.611000000
O    -5.065000000     4.423000000     2.310000000
H    -5.787000000     5.044000000     2.405000000
H    -4.506000000     4.588000000     3.070000000
O     4.690000000    -3.823000000    -4.885000000
H     5.080000000    -4.040000000    -4.038000000
H     3.784000000    -3.592000000    -4.680000000
O    -1.026000000     4.677000000     5.951000000
H    -1.858000000     4.262000000     5.722000000
H    -1.229000000     5.213000000     6.718000000
O    -2.072000000    -4.448000000    -4.211000000
H    -2.524000000    -3.905000000    -3.564000000
H    -1.622000000    -5.114000000    -3.692000000
O    -1.736000000     2.061000000    -6.451000000
H    -1.369000000     1.521000000    -5.751000000
H    -2.594000000     2.329000000    -6.122000000
O    -2.413000000    -5.141000000     0.563000000
H    -2.586000000    -6.017000000     0.908000000
H    -1.514000000    -5.185000000     0.235000000
O    -0.663000000    -3.554000000    -6.525000000
H    -1.289000000    -3.681000000    -5.812000000
H    -0.674000000    -4.382000000    -7.004000000
O     0.363000000     1.785000000     6.636000000
H    -0.038000000     1.099000000     7.170000000
H     0.468000000     2.525000000     7.235000000
O    -2.397000000     6.824000000     1.279000000
H    -3.222000000     7.054000000     1.706000000
H    -1.984000000     6.200000000     1.876000000
O    -3.872000000     4.823000000    -0.163000000
H    -4.327000000     4.660000000     0.664000000
H    -3.275000000     5.545000000     0.031000000
O     1.903000000     2.878000000     4.337000000
H     1.642000000     2.978000000     3.422000000
H     1.101000000     2.615000000     4.788000000
O     4.008000000    -0.113000000     1.885000000
H     4.655000000    -0.804000000     1.746000000
H     4.167000000     0.189000000     2.779000000
O    -4.654000000     1.266000000    -0.746000000
H    -4.483000000     0.327000000    -0.812000000
H    -4.197000000     1.537000000     0.050000000
O    -4.049000000    -0.223000000     5.487000000
H    -3.365000000     0.390000000     5.216000000
H    -3.702000000    -1.085000000     5.257000000
O     6.291000000     2.703000000    -0.100000000
H     6.834000000     3.420000000    -0.427000000
H     5.725000000     3.112000000     0.555000000
O    -3.417000000     2.076000000     1.337000000
H    -3.967000000     2.830000000     1.547000000
H    -2.558000000     2.298000000     1.696000000
O     1.332000000     3.207000000    -3.002000000
H     2.098000000     2.662000000    -2.824000000
H     1.327000000     3.852000000    -2.295000000
O     4.210000000     1.320000000    -0.885000000
H     3.957000000     0.864000000    -0.082000000
H     5.001000000     1.804000000    -0.646000000
O     0.044000000    -5.298000000    -0.578000000
H     0.561000000    -6.080000000    -0.383000000
H     0.022000000    -5.258000000    -1.534000000
O    -3.295000000    -2.716000000     4.955000000
H    -2.364000000    -2.582000000     4.778000000
H    -3.627000000    -3.153000000     4.170000000
O    -0.714000000     0.799000000    -4.503000000
H    -0.356000000     1.306000000    -3.774000000
H    -0.083000000     0.091000000    -4.634000000
O     5.594000000    -2.103000000     0.792000000
H     4.834000000    -2.655000000     0.978000000
H     5.489000000    -1.852000000    -0.126000000
O    -4.009000000    -3.635000000     2.245000000
H    -3.294000000    -4.058000000     1.769000000
H    -4.520000000    -4.360000000     2.603000000
O     5.495000000     3.981000000     2.218000000
H     5.360000000     3.931000000     3.164000000
H     4.704000000     4.406000000     1.886000000
O     0.599000000    -5.571000000    -3.600000000
H     1.495000000    -5.885000000    -3.484000000
H     0.275000000    -6.049000000    -4.364000000
O     3.781000000     0.434000000     4.706000000
H     3.246000000     1.229000000     4.694000000
H     3.220000000    -0.225000000     5.114000000
O     1.565000000     5.847000000     4.994000000
H     0.611000000     5.860000000     5.074000000
H     1.753000000     5.044000000     4.508000000
O    -4.065000000    -4.128000000    -1.201000000
H    -3.580000000    -4.382000000    -0.416000000
H    -4.543000000    -4.918000000    -1.454000000
O     1.176000000     7.366000000     0.227000000
H     1.540000000     7.691000000     1.051000000
H     0.742000000     6.546000000     0.464000000
O     1.723000000    -0.821000000    -4.955000000
H     2.005000000    -1.049000000    -5.841000000
H     2.500000000    -0.439000000    -4.547000000
O     4.433000000     3.948000000     4.871000000
H     4.167000000     4.169000000     5.763000000
H     3.652000000     3.560000000     4.477000000
O     3.698000000    -3.364000000    -1.115000000
H     4.268000000    -2.843000000    -1.679000000
H     3.211000000    -3.926000000    -1.719000000
O     3.175000000     0.967000000    -3.385000000
H     3.828000000     1.240000000    -4.030000000
H     3.567000000     1.189000000    -2.540000000
O    -4.052000000     4.418000000     5.278000000
H    -4.383000000     4.691000000     6.134000000
H    -4.022000000     3.463000000     5.327000000
O     0.518000000     4.884000000    -0.565000000
H     0.239000000     4.111000000    -0.074000000
H    -0.286000000     5.217000000    -0.965000000
O    -4.403000000    -1.406000000    -1.481000000
H    -3.934000000    -1.125000000    -2.267000000
H    -4.277000000    -2.354000000    -1.452000000
O     2.160000000    -3.400000000    -4.213000000
H     1.565000000    -4.051000000    -3.841000000
H     1.600000000    -2.649000000    -4.410000000
O     1.497000000    -1.615000000     1.925000000
H     2.242000000    -1.023000000     1.829000000
H     0.811000000    -1.228000000     1.381000000
O    -3.427000000    -0.103000000    -3.625000000
H    -2.565000000    -0.025000000    -4.033000000
H    -3.878000000     0.708000000    -3.861000000
