161
-3056.06976
C     1.403000000     0.424000000     0.046000000
H     2.458000000     0.661000000    -0.059000000
C     0.757000000    -0.266000000    -0.988000000
H     1.396000000    -0.603000000    -1.801000000
C    -0.559000000    -0.614000000    -0.876000000
C    -1.180000000    -1.549000000    -1.937000000
H    -2.144000000    -1.968000000    -1.641000000
H    -1.244000000    -1.058000000    -2.911000000
H    -0.515000000    -2.409000000    -2.041000000
C    -1.275000000    -0.235000000     0.232000000
H    -2.298000000    -0.600000000     0.265000000
C    -0.712000000     0.612000000     1.202000000
H    -1.343000000     1.030000000     1.982000000
C     0.674000000     0.848000000     1.185000000
C     1.367000000     1.647000000     2.214000000
O     0.666000000     2.228000000     3.025000000
O     2.542000000     1.850000000     2.095000000
O    -3.826000000     0.553000000    -2.607000000
H    -4.138000000    -0.294000000    -2.286000000
H    -4.558000000     1.150000000    -2.457000000
O     2.223000000    -3.299000000    -1.682000000
H     2.728000000    -3.129000000    -0.886000000
H     2.543000000    -2.652000000    -2.311000000
O    -5.294000000    -0.727000000     3.275000000
H    -6.142000000    -1.090000000     3.017000000
H    -5.024000000    -0.195000000     2.526000000
O    -2.409000000     5.927000000     3.183000000
H    -2.598000000     6.238000000     4.068000000
H    -1.936000000     5.105000000     3.314000000
O     1.369000000    -4.905000000     1.861000000
H     1.091000000    -4.300000000     1.174000000
H     1.699000000    -5.669000000     1.388000000
O     3.544000000     3.115000000     4.291000000
H     3.215000000     3.080000000     3.392000000
H     4.234000000     2.452000000     4.319000000
O    -4.912000000     1.298000000     1.017000000
H    -4.316000000     2.043000000     0.940000000
H    -5.415000000     1.308000000     0.202000000
O    -4.439000000    -4.053000000     1.931000000
H    -5.289000000    -3.790000000     1.577000000
H    -4.592000000    -4.923000000     2.300000000
O    -1.449000000     1.986000000    -1.924000000
H    -2.010000000     1.395000000    -2.426000000
H    -1.211000000     1.485000000    -1.144000000
O    -1.628000000     2.790000000     3.725000000
H    -1.562000000     2.862000000     4.677000000
H    -0.724000000     2.678000000     3.429000000
O    -1.642000000    -3.548000000    -4.635000000
H    -2.424000000    -3.040000000    -4.420000000
H    -1.853000000    -3.973000000    -5.466000000
O    -5.086000000    -5.847000000    -2.877000000
H    -4.152000000    -5.703000000    -2.723000000
H    -5.343000000    -6.484000000    -2.211000000
O    -4.610000000     0.431000000    -5.375000000
H    -4.112000000     0.814000000    -4.653000000
H    -4.020000000     0.485000000    -6.128000000
O     1.353000000    -2.312000000     4.002000000
H     1.100000000    -1.784000000     4.759000000
H     1.125000000    -3.209000000     4.248000000
O    -4.737000000    -2.031000000    -1.709000000
H    -4.905000000    -2.037000000    -0.767000000
H    -4.446000000    -2.921000000    -1.906000000
O    -1.369000000     2.878000000     6.412000000
H    -0.619000000     2.301000000     6.270000000
H    -1.499000000     2.872000000     7.361000000
O     5.023000000     1.236000000     1.125000000
H     4.134000000     1.266000000     1.477000000
H     5.334000000     2.139000000     1.180000000
O    -0.585000000     4.289000000     0.454000000
H    -0.100000000     4.461000000     1.260000000
H     0.060000000     4.405000000    -0.244000000
O    -0.207000000     5.249000000     5.717000000
H    -1.010000000     5.718000000     5.490000000
H    -0.506000000     4.383000000     5.994000000
O     3.434000000    -0.936000000     3.039000000
H     2.509000000    -1.177000000     3.081000000
H     3.432000000     0.021000000     3.053000000
O     0.041000000    -6.367000000    -1.041000000
H    -0.520000000    -6.037000000    -0.339000000
H     0.198000000    -5.606000000    -1.599000000
O     2.011000000    -0.449000000    -5.820000000
H     1.425000000    -1.198000000    -5.934000000
H     2.547000000    -0.441000000    -6.613000000
O     5.641000000    -1.271000000    -0.011000000
H     5.355000000    -0.423000000     0.330000000
H     5.042000000    -1.903000000     0.386000000
O    -4.701000000     2.252000000     3.856000000
H    -4.766000000     1.951000000     2.949000000
H    -3.805000000     2.581000000     3.935000000
O     2.878000000     3.709000000    -1.830000000
H     3.510000000     3.931000000    -2.513000000
H     2.115000000     3.383000000    -2.306000000
O     4.296000000     0.848000000    -2.257000000
H     3.480000000     0.412000000    -2.502000000
H     4.029000000     1.730000000    -2.000000000
O    -0.457000000    -0.239000000     6.645000000
H    -1.162000000    -0.471000000     6.041000000
H    -0.123000000     0.595000000     6.314000000
O     0.517000000    -4.449000000    -3.214000000
H     1.145000000    -4.070000000    -2.599000000
H    -0.070000000    -3.725000000    -3.434000000
O    -2.086000000    -0.076000000     4.472000000
H    -2.057000000    -0.697000000     3.744000000
H    -1.898000000     0.772000000     4.071000000
O    -1.844000000    -5.360000000     1.255000000
H    -1.760000000    -5.643000000     2.166000000
H    -2.725000000    -4.991000000     1.199000000
O    -4.179000000    -2.281000000    -4.360000000
H    -4.453000000    -2.013000000    -3.483000000
H    -4.480000000    -1.574000000    -4.932000000
O     0.739000000     2.786000000    -3.023000000
H     0.454000000     3.603000000    -3.432000000
H    -0.062000000     2.409000000    -2.659000000
O    -0.257000000    -6.906000000    -4.505000000
H     0.057000000    -6.021000000    -4.320000000
H    -0.950000000    -6.783000000    -5.154000000
O     5.546000000     1.254000000     4.340000000
H     5.500000000     0.327000000     4.574000000
H     6.461000000     1.393000000     4.095000000
O     0.535000000     4.792000000     3.043000000
H     0.425000000     4.974000000     3.977000000
H     0.794000000     3.872000000     3.008000000
O    -3.157000000     3.471000000     1.105000000
H    -2.563000000     3.978000000     0.551000000
H    -2.687000000     3.372000000     1.933000000
O     3.291000000    -1.810000000    -3.708000000
H     2.932000000    -1.387000000    -4.488000000
H     3.937000000    -2.430000000    -4.047000000
O     6.578000000     3.313000000     2.093000000
H     7.404000000     2.864000000     2.269000000
H     6.457000000     3.896000000     2.843000000
O     3.522000000    -3.100000000     1.579000000
H     3.598000000    -2.250000000     2.013000000
H     2.776000000    -3.521000000     2.005000000
O     5.138000000    -1.236000000     5.117000000
H     4.583000000    -1.271000000     4.338000000
H     4.736000000    -1.856000000     5.725000000
O     0.567000000    -2.701000000    -6.272000000
H    -0.182000000    -2.801000000    -5.684000000
H     1.075000000    -3.504000000    -6.151000000
O     2.875000000     6.556000000     2.465000000
H     2.021000000     6.123000000     2.497000000
H     3.392000000     6.019000000     1.864000000
O     6.962000000     1.739000000    -2.023000000
H     6.658000000     2.646000000    -1.978000000
H     6.160000000     1.217000000    -2.024000000
O     3.385000000     4.046000000     0.784000000
H     3.179000000     3.869000000    -0.133000000
H     3.228000000     3.213000000     1.230000000
O    -3.024000000    -2.454000000     3.327000000
H    -3.412000000    -2.977000000     2.626000000
H    -3.737000000    -1.889000000     3.627000000
O    -2.479000000    -4.951000000    -2.472000000
H    -1.873000000    -5.608000000    -2.130000000
H    -2.149000000    -4.754000000    -3.348000000
O     1.267000000     1.634000000     5.558000000
H     1.213000000     2.028000000     4.688000000
H     2.159000000     1.818000000     5.850000000
O     0.652000000     2.009000000    -5.910000000
H     0.508000000     2.267000000    -5.000000000
H     1.172000000     1.207000000    -5.852000000
