161
-3075.42665
C     0.872000000     0.553000000     1.093000000
H     1.641000000     0.737000000     1.839000000
C     0.963000000    -0.684000000     0.472000000
H     1.821000000    -1.337000000     0.614000000
C     0.052000000    -1.162000000    -0.458000000
C     0.359000000    -2.411000000    -1.138000000
H     0.831000000    -2.279000000    -2.114000000
H     1.072000000    -2.971000000    -0.529000000
H    -0.526000000    -3.051000000    -1.149000000
C    -1.016000000    -0.369000000    -0.779000000
H    -1.730000000    -0.658000000    -1.547000000
C    -1.114000000     0.984000000    -0.270000000
H    -1.911000000     1.641000000    -0.606000000
C    -0.169000000     1.425000000     0.668000000
C    -0.331000000     2.827000000     1.127000000
O    -1.295000000     3.510000000     0.846000000
O     0.488000000     3.237000000     1.923000000
O    -2.201000000    -5.858000000    -0.479000000
H    -1.630000000    -6.607000000    -0.650000000
H    -1.964000000    -5.571000000     0.402000000
O    -3.167000000    -2.557000000    -4.317000000
H    -2.969000000    -3.037000000    -3.513000000
H    -3.529000000    -1.723000000    -4.015000000
O     1.678000000     7.372000000     4.136000000
H     1.063000000     7.114000000     3.449000000
H     1.227000000     7.159000000     4.953000000
O     3.062000000     3.826000000     2.499000000
H     2.119000000     3.707000000     2.386000000
H     3.438000000     2.970000000     2.293000000
O     3.395000000    -3.102000000    -1.463000000
H     3.452000000    -3.242000000    -2.408000000
H     2.924000000    -2.274000000    -1.371000000
O     3.799000000    -2.230000000     3.602000000
H     3.284000000    -1.490000000     3.925000000
H     4.455000000    -2.380000000     4.282000000
O     4.379000000    -1.866000000     1.008000000
H     4.076000000    -2.516000000     0.373000000
H     4.283000000    -2.297000000     1.857000000
O    -3.142000000    -3.703000000    -1.914000000
H    -3.077000000    -4.371000000    -1.232000000
H    -3.587000000    -2.970000000    -1.489000000
O     2.858000000    -6.465000000     1.862000000
H     3.530000000    -6.997000000     2.289000000
H     3.144000000    -6.404000000     0.951000000
O    -6.180000000    -0.063000000    -2.074000000
H    -5.489000000    -0.336000000    -1.471000000
H    -6.485000000    -0.878000000    -2.473000000
O    -0.857000000     7.831000000     0.789000000
H    -1.579000000     7.204000000     0.836000000
H    -0.092000000     7.340000000     1.089000000
O     1.960000000    -0.713000000    -4.502000000
H     2.630000000    -0.189000000    -4.941000000
H     1.404000000    -0.071000000    -4.062000000
O     6.297000000     1.097000000     0.426000000
H     6.985000000     1.285000000    -0.212000000
H     6.038000000     0.194000000     0.239000000
O    -1.250000000     5.091000000     3.359000000
H    -1.164000000     4.292000000     3.879000000
H    -0.878000000     4.864000000     2.507000000
O    -1.176000000    -1.022000000    -5.099000000
H    -1.425000000    -0.210000000    -4.658000000
H    -1.964000000    -1.564000000    -5.068000000
O     1.056000000    -3.053000000    -4.456000000
H     1.326000000    -2.142000000    -4.570000000
H     0.129000000    -3.060000000    -4.693000000
O     2.872000000     0.226000000     4.291000000
H     3.096000000     0.637000000     3.456000000
H     3.484000000     0.609000000     4.919000000
O     3.508000000     4.960000000     0.162000000
H     3.819000000     4.643000000     1.010000000
H     3.620000000     4.215000000    -0.428000000
O    -4.505000000     0.670000000     0.511000000
H    -4.822000000     1.387000000    -0.038000000
H    -3.997000000     1.101000000     1.198000000
O     4.069000000    -0.104000000    -1.412000000
H     4.126000000    -0.683000000    -0.652000000
H     4.780000000    -0.389000000    -1.985000000
O    -0.183000000     2.622000000     4.437000000
H    -0.251000000     1.671000000     4.517000000
H     0.105000000     2.766000000     3.536000000
O    -2.328000000    -3.989000000     1.777000000
H    -2.492000000    -4.349000000     2.648000000
H    -1.713000000    -3.271000000     1.926000000
O    -0.827000000    -5.560000000    -5.372000000
H    -1.426000000    -5.175000000    -4.733000000
H    -0.745000000    -6.475000000    -5.102000000
O     2.099000000    -6.053000000    -3.353000000
H     1.788000000    -6.616000000    -4.062000000
H     1.573000000    -5.257000000    -3.431000000
O    -1.030000000     1.638000000    -4.223000000
H    -1.838000000     1.943000000    -3.811000000
H    -1.038000000     2.038000000    -5.092000000
O    -1.696000000     4.389000000    -1.702000000
H    -1.659000000     3.754000000    -0.988000000
H    -2.251000000     5.093000000    -1.368000000
O     0.371000000     6.484000000    -1.537000000
H    -0.277000000     5.779000000    -1.551000000
H     0.098000000     7.045000000    -0.811000000
O    -1.370000000    -1.216000000     2.583000000
H    -0.895000000    -0.801000000     1.863000000
H    -1.105000000    -0.724000000     3.360000000
O     3.779000000    -2.997000000    -4.328000000
H     4.007000000    -2.252000000    -4.884000000
H     2.881000000    -3.215000000    -4.577000000
O     0.874000000     6.154000000     1.572000000
H     1.772000000     6.206000000     1.244000000
H     0.744000000     5.226000000     1.767000000
O    -3.101000000     7.018000000     4.013000000
H    -3.786000000     6.493000000     4.427000000
H    -2.414000000     6.387000000     3.795000000
O    -3.339000000     2.193000000     2.297000000
H    -2.763000000     2.880000000     1.961000000
H    -3.374000000     2.351000000     3.240000000
O    -0.177000000    -7.712000000    -1.073000000
H    -0.473000000    -8.395000000    -1.674000000
H     0.655000000    -7.414000000    -1.440000000
O     5.875000000    -3.973000000    -0.390000000
H     5.106000000    -3.468000000    -0.654000000
H     5.752000000    -4.829000000    -0.801000000
O    -4.913000000    -3.115000000     1.905000000
H    -4.938000000    -3.994000000     2.282000000
H    -3.987000000    -2.958000000     1.724000000
O     3.482000000     2.505000000    -1.256000000
H     3.400000000     1.553000000    -1.210000000
H     2.750000000     2.783000000    -1.806000000
O     3.319000000    -6.862000000    -0.737000000
H     3.063000000    -6.438000000    -1.556000000
H     2.842000000    -7.692000000    -0.738000000
O     0.959000000     3.945000000     6.569000000
H     0.679000000     3.618000000     5.714000000
H     0.295000000     3.622000000     7.177000000
O    -5.713000000     2.927000000    -0.881000000
H    -5.866000000     3.768000000    -0.450000000
H    -5.929000000     3.086000000    -1.800000000
O     0.350000000     0.014000000     4.969000000
H     1.286000000     0.012000000     4.771000000
H     0.291000000    -0.353000000     5.851000000
O    -2.932000000    -6.157000000    -3.380000000
H    -3.281000000    -6.898000000    -2.886000000
H    -3.087000000    -5.399000000    -2.817000000
O    -3.273000000     2.630000000    -3.169000000
H    -2.691000000     3.253000000    -2.734000000
H    -3.981000000     3.169000000    -3.521000000
O    -4.622000000    -1.810000000    -0.427000000
H    -4.967000000    -2.335000000     0.295000000
H    -4.369000000    -0.981000000    -0.020000000
O    -2.578000000     5.732000000     0.756000000
H    -3.362000000     5.496000000     1.253000000
H    -2.025000000     4.951000000     0.795000000
O    -3.706000000    -0.188000000    -3.623000000
H    -4.514000000    -0.215000000    -3.110000000
H    -3.485000000     0.742000000    -3.671000000
O     1.047000000     1.566000000    -2.653000000
H     0.228000000     1.637000000    -3.143000000
H     0.812000000     1.080000000    -1.863000000
O     4.160000000     6.227000000     3.810000000
H     3.953000000     5.305000000     3.662000000
H     3.308000000     6.649000000     3.925000000
O     3.919000000     1.361000000     1.720000000
H     4.819000000     1.441000000     1.405000000
H     3.614000000     0.525000000     1.366000000
