161
-3032.78459
C     1.162000000     0.061000000     0.826000000
H     2.068000000     0.003000000     1.423000000
C     1.085000000    -0.546000000    -0.422000000
H     2.000000000    -1.021000000    -0.767000000
C    -0.069000000    -0.540000000    -1.147000000
C    -0.022000000    -1.169000000    -2.457000000
H     0.498000000    -2.122000000    -2.339000000
H    -1.059000000    -1.410000000    -2.699000000
H     0.457000000    -0.569000000    -3.233000000
C    -1.164000000     0.050000000    -0.557000000
H    -2.085000000     0.065000000    -1.134000000
C    -1.138000000     0.680000000     0.661000000
H    -2.074000000     1.075000000     1.046000000
C     0.049000000     0.691000000     1.415000000
C     0.114000000     1.375000000     2.798000000
O    -0.933000000     1.924000000     3.136000000
O     1.119000000     1.446000000     3.457000000
O    -3.574000000    -1.829000000    -2.503000000
H    -4.485000000    -1.905000000    -2.786000000
H    -3.125000000    -2.550000000    -2.945000000
O    -0.987000000    -0.181000000    -7.816000000
H    -1.291000000    -0.197000000    -8.723000000
H    -1.645000000    -0.682000000    -7.333000000
O     3.137000000     4.397000000    -0.319000000
H     4.028000000     4.054000000    -0.390000000
H     2.596000000     3.755000000    -0.779000000
O    -2.114000000    -4.165000000    -3.741000000
H    -1.938000000    -5.080000000    -3.519000000
H    -1.332000000    -3.879000000    -4.213000000
O     2.720000000     1.747000000     7.419000000
H     1.858000000     2.164000000     7.423000000
H     3.079000000     1.932000000     8.287000000
O     1.040000000    -2.650000000     4.920000000
H     1.308000000    -1.749000000     5.102000000
H     1.668000000    -3.189000000     5.401000000
O    -4.241000000    -0.467000000     0.413000000
H    -4.160000000    -1.153000000    -0.249000000
H    -3.720000000    -0.783000000     1.151000000
O     3.342000000     1.480000000    -6.935000000
H     3.846000000     1.463000000    -6.122000000
H     2.732000000     0.747000000    -6.854000000
O    -3.684000000    -0.122000000     7.431000000
H    -4.474000000     0.084000000     6.932000000
H    -2.968000000     0.005000000     6.809000000
O     6.706000000     0.536000000     4.692000000
H     7.395000000     0.099000000     4.191000000
H     5.964000000     0.581000000     4.090000000
O     1.704000000     2.281000000    -4.194000000
H     1.723000000     1.627000000    -4.892000000
H     1.591000000     1.773000000    -3.391000000
O    -3.601000000     2.283000000    -3.751000000
H    -4.384000000     2.536000000    -3.262000000
H    -3.829000000     1.442000000    -4.149000000
O    -0.391000000     3.375000000     5.218000000
H    -0.965000000     4.116000000     5.024000000
H    -0.429000000     2.830000000     4.432000000
O    -4.769000000     3.260000000     4.711000000
H    -5.541000000     3.440000000     4.175000000
H    -4.249000000     2.652000000     4.186000000
O     6.603000000     2.654000000     2.318000000
H     5.740000000     2.286000000     2.509000000
H     6.820000000     2.318000000     1.448000000
O    -3.524000000     4.201000000    -0.418000000
H    -4.044000000     3.577000000     0.089000000
H    -3.881000000     4.147000000    -1.304000000
O    -3.654000000    -1.484000000     2.838000000
H    -4.281000000    -2.078000000     3.250000000
H    -2.797000000    -1.850000000     3.059000000
O    -0.246000000    -3.070000000    -5.343000000
H     0.614000000    -2.763000000    -5.053000000
H    -0.053000000    -3.707000000    -6.031000000
O     1.187000000     2.386000000    -0.953000000
H     0.422000000     2.954000000    -1.051000000
H     0.823000000     1.531000000    -0.722000000
O     3.569000000    -3.819000000    -1.330000000
H     2.621000000    -3.711000000    -1.255000000
H     3.755000000    -4.635000000    -0.867000000
O     1.931000000    -0.299000000     5.643000000
H     2.119000000     0.325000000     6.344000000
H     1.566000000     0.235000000     4.938000000
O    -1.847000000    -0.026000000     5.574000000
H    -2.258000000    -0.639000000     4.965000000
H    -1.307000000     0.537000000     5.019000000
O     1.399000000     5.408000000     4.790000000
H     2.218000000     4.924000000     4.685000000
H     0.767000000     4.749000000     5.079000000
O    -6.396000000    -0.509000000     2.613000000
H    -5.646000000    -0.571000000     2.021000000
H    -6.083000000     0.030000000     3.339000000
O     4.950000000    -2.370000000    -3.303000000
H     5.566000000    -1.706000000    -2.992000000
H     4.691000000    -2.845000000    -2.513000000
O    -1.833000000    -3.931000000    -0.077000000
H    -2.739000000    -4.139000000     0.152000000
H    -1.907000000    -3.296000000    -0.790000000
O     2.296000000    -2.111000000    -4.187000000
H     3.166000000    -1.743000000    -4.342000000
H     2.390000000    -2.616000000    -3.380000000
O     2.936000000     3.310000000     3.873000000
H     2.360000000     2.552000000     3.769000000
H     3.606000000     3.017000000     4.491000000
O     4.861000000     0.405000000    -4.581000000
H     5.425000000     0.193000000    -5.325000000
H     5.260000000    -0.052000000    -3.841000000
O    -1.481000000     2.264000000    -5.803000000
H    -1.847000000     1.837000000    -5.028000000
H    -1.255000000     1.543000000    -6.390000000
O    -2.769000000     5.284000000     4.763000000
H    -3.490000000     4.684000000     4.955000000
H    -2.539000000     5.100000000     3.852000000
O    -3.479000000     1.201000000     3.349000000
H    -3.561000000     0.250000000     3.279000000
H    -2.535000000     1.361000000     3.346000000
O     0.894000000    -4.332000000    -0.014000000
H     1.230000000    -4.379000000     0.881000000
H    -0.028000000    -4.093000000     0.088000000
O     4.952000000     2.489000000     6.014000000
H     5.642000000     1.874000000     5.765000000
H     4.275000000     1.942000000     6.411000000
O     0.961000000     4.423000000     1.536000000
H     1.331000000     4.461000000     2.418000000
H     1.700000000     4.188000000     0.976000000
O    -0.876000000     3.923000000    -1.018000000
H    -1.797000000     4.007000000    -0.771000000
H    -0.394000000     4.255000000    -0.261000000
O    -2.832000000    -2.318000000    -6.968000000
H    -2.153000000    -2.856000000    -6.561000000
H    -3.212000000    -2.881000000    -7.643000000
O     3.659000000    -2.444000000     2.690000000
H     3.139000000    -3.212000000     2.454000000
H     3.775000000    -2.514000000     3.637000000
O     0.206000000     2.446000000     7.705000000
H    -0.675000000     2.263000000     8.032000000
H     0.080000000     2.656000000     6.780000000
O     4.362000000     0.134000000     3.492000000
H     3.590000000     0.128000000     4.058000000
H     4.319000000    -0.698000000     3.021000000
O    -5.042000000     1.955000000     0.025000000
H    -4.825000000     2.072000000    -0.900000000
H    -4.825000000     1.040000000     0.208000000
O    -0.874000000    -1.620000000     3.023000000
H    -0.432000000    -1.437000000     2.194000000
H    -0.167000000    -1.852000000     3.625000000
O    -1.570000000     4.509000000     2.524000000
H    -0.679000000     4.828000000     2.383000000
H    -1.522000000     3.572000000     2.335000000
O    -2.774000000    -0.189000000    -4.708000000
H    -3.176000000    -0.887000000    -5.225000000
H    -3.007000000    -0.397000000    -3.803000000
O    -1.034000000    -6.669000000    -0.696000000
H    -1.321000000    -5.864000000    -0.265000000
H    -0.661000000    -7.198000000     0.009000000
O     1.493000000    -0.666000000    -6.580000000
H     0.624000000    -0.798000000    -6.960000000
H     1.420000000    -1.012000000    -5.690000000
O     3.820000000     1.897000000     1.484000000
H     3.436000000     2.536000000     2.084000000
H     3.993000000     1.130000000     2.030000000
O     4.708000000     1.999000000    -1.010000000
H     4.185000000     1.968000000    -0.209000000
H     5.402000000     1.355000000    -0.868000000
