161
-3005.17530
C     1.242000000     0.626000000     0.652000000
H     2.169000000     0.986000000     1.091000000
C     1.130000000     0.014000000    -0.641000000
H     2.019000000     0.053000000    -1.265000000
C    -0.041000000    -0.474000000    -1.161000000
C    -0.165000000    -1.144000000    -2.546000000
H     0.622000000    -0.810000000    -3.226000000
H     0.006000000    -2.209000000    -2.377000000
H    -1.154000000    -1.063000000    -3.001000000
C    -1.146000000    -0.425000000    -0.374000000
H    -2.077000000    -0.798000000    -0.793000000
C    -1.097000000     0.139000000     0.909000000
H    -2.039000000     0.098000000     1.450000000
C     0.118000000     0.677000000     1.454000000
C     0.145000000     1.215000000     2.899000000
O    -0.875000000     1.512000000     3.477000000
O     1.150000000     1.599000000     3.445000000
O    -3.995000000     1.491000000    -0.336000000
H    -3.247000000     1.088000000    -0.778000000
H    -3.742000000     2.407000000    -0.223000000
O    -2.855000000    -2.304000000    -7.836000000
H    -2.163000000    -1.666000000    -8.014000000
H    -3.068000000    -2.174000000    -6.912000000
O     5.033000000    -1.362000000    -3.980000000
H     5.123000000    -2.157000000    -4.506000000
H     4.754000000    -0.692000000    -4.604000000
O     1.551000000     2.572000000    -7.116000000
H     0.880000000     3.001000000    -6.585000000
H     1.931000000     1.913000000    -6.534000000
O     3.656000000     2.529000000    -3.846000000
H     3.943000000     1.851000000    -4.458000000
H     2.720000000     2.367000000    -3.729000000
O    -5.603000000    -3.413000000    -3.366000000
H    -5.552000000    -3.216000000    -2.431000000
H    -6.539000000    -3.391000000    -3.565000000
O     2.100000000    -1.763000000     3.858000000
H     2.900000000    -1.847000000     3.340000000
H     2.357000000    -1.232000000     4.612000000
O    -6.618000000     1.982000000    -1.215000000
H    -7.088000000     1.191000000    -1.478000000
H    -5.845000000     1.658000000    -0.752000000
O    -3.293000000     0.125000000     7.860000000
H    -3.797000000     0.938000000     7.828000000
H    -2.644000000     0.218000000     7.163000000
O     4.354000000    -1.172000000     1.486000000
H     4.327000000    -2.128000000     1.438000000
H     4.726000000    -0.901000000     0.647000000
O    -0.638000000     3.210000000    -5.263000000
H    -0.960000000     2.309000000    -5.236000000
H    -1.196000000     3.683000000    -4.646000000
O    -3.569000000     4.937000000     6.206000000
H    -3.526000000     4.442000000     5.388000000
H    -4.383000000     5.437000000     6.141000000
O    -3.942000000     3.939000000     3.319000000
H    -4.598000000     4.571000000     3.027000000
H    -4.448000000     3.164000000     3.562000000
O    -0.016000000     3.941000000     1.108000000
H     0.039000000     3.258000000     1.777000000
H     0.380000000     3.547000000     0.331000000
O    -5.360000000    -0.388000000     1.304000000
H    -5.342000000    -0.240000000     2.250000000
H    -4.855000000     0.338000000     0.939000000
O    -1.312000000     0.144000000    -5.865000000
H    -1.349000000     0.130000000    -6.821000000
H    -0.454000000    -0.222000000    -5.652000000
O    -1.289000000     2.852000000    -1.410000000
H    -1.647000000     3.616000000    -1.862000000
H    -1.506000000     2.114000000    -1.979000000
O     0.814000000    -4.078000000     4.088000000
H     0.992000000    -3.159000000     3.885000000
H     1.574000000    -4.363000000     4.594000000
O    -3.605000000    -1.663000000     3.985000000
H    -4.184000000    -2.357000000     3.669000000
H    -2.759000000    -2.094000000     4.108000000
O     3.072000000    -5.947000000    -0.876000000
H     2.190000000    -5.677000000    -1.134000000
H     3.607000000    -5.161000000    -0.994000000
O    -2.358000000    -3.820000000    -3.517000000
H    -2.900000000    -4.309000000    -4.135000000
H    -1.458000000    -4.028000000    -3.770000000
O    -1.280000000     0.386000000     5.927000000
H    -1.110000000     0.749000000     5.058000000
H    -0.436000000     0.033000000     6.209000000
O     2.358000000    -3.473000000    -3.280000000
H     1.768000000    -3.985000000    -3.833000000
H     1.857000000    -2.688000000    -3.058000000
O     0.065000000    -4.533000000    -4.870000000
H     0.699000000    -5.226000000    -5.056000000
H    -0.329000000    -4.335000000    -5.720000000
O     4.389000000    -3.499000000    -1.264000000
H     4.874000000    -2.674000000    -1.284000000
H     3.599000000    -3.325000000    -1.774000000
O    -2.795000000    -4.731000000     2.274000000
H    -2.626000000    -4.310000000     3.117000000
H    -2.132000000    -4.367000000     1.688000000
O    -2.722000000    -5.323000000    -1.285000000
H    -3.442000000    -5.923000000    -1.482000000
H    -2.688000000    -4.734000000    -2.039000000
O     1.257000000    -1.428000000    -5.690000000
H     1.916000000    -1.380000000    -6.383000000
H     1.366000000    -2.302000000    -5.316000000
O    -1.408000000     4.052000000     4.474000000
H    -2.216000000     3.791000000     4.032000000
H    -0.861000000     3.267000000     4.456000000
O    -2.870000000     1.758000000    -3.555000000
H    -3.576000000     2.332000000    -3.850000000
H    -3.247000000     0.879000000    -3.585000000
O    -1.600000000     2.709000000     7.545000000
H    -1.419000000     3.592000000     7.224000000
H    -1.261000000     2.131000000     6.862000000
O    -3.577000000     1.032000000     3.920000000
H    -3.699000000     0.110000000     4.148000000
H    -2.631000000     1.169000000     3.977000000
O     4.997000000     1.053000000     3.266000000
H     5.197000000     0.406000000     3.943000000
H     4.768000000     0.531000000     2.497000000
O    -0.091000000    -5.830000000    -0.667000000
H     0.119000000    -5.163000000    -0.012000000
H    -1.007000000    -5.663000000    -0.892000000
O     2.076000000     2.487000000     7.725000000
H     1.391000000     1.875000000     7.994000000
H     2.620000000     2.594000000     8.506000000
O     6.971000000     1.626000000     0.283000000
H     7.090000000     2.576000000     0.305000000
H     6.187000000     1.495000000    -0.250000000
O    -0.634000000     6.512000000     4.246000000
H    -0.727000000     6.550000000     3.294000000
H    -1.016000000     5.668000000     4.490000000
O    -5.074000000    -2.346000000    -0.549000000
H    -4.962000000    -1.489000000    -0.138000000
H    -5.177000000    -2.952000000     0.186000000
O    -3.441000000    -1.181000000    -3.902000000
H    -2.525000000    -1.046000000    -4.144000000
H    -3.483000000    -2.096000000    -3.624000000
O     3.237000000     3.903000000     0.800000000
H     3.310000000     3.886000000     1.754000000
H     3.070000000     4.821000000     0.589000000
O    -6.059000000     0.050000000    -3.739000000
H    -5.805000000     0.872000000    -4.159000000
H    -5.276000000    -0.498000000    -3.790000000
O     1.679000000     0.681000000     5.821000000
H     1.635000000     1.072000000     4.948000000
H     1.930000000     1.404000000     6.395000000
O     5.052000000    -0.592000000    -1.092000000
H     4.788000000     0.320000000    -0.966000000
H     5.078000000    -0.704000000    -2.043000000
O    -0.999000000    -3.416000000     0.889000000
H    -0.181000000    -3.893000000     1.030000000
H    -0.733000000    -2.499000000     0.822000000
O    -3.047000000     3.915000000     0.682000000
H    -2.240000000     3.439000000     0.482000000
H    -3.090000000     3.922000000     1.638000000
O     3.466000000     6.051000000     4.586000000
H     4.335000000     6.446000000     4.654000000
H     3.602000000     5.260000000     4.064000000
O     3.294000000     3.298000000     3.752000000
H     3.917000000     2.627000000     3.475000000
H     2.444000000     2.856000000     3.739000000
O     4.517000000     2.159000000    -0.872000000
H     3.950000000     2.523000000    -0.192000000
H     4.142000000     2.480000000    -1.693000000
