161
-3022.41025
C     1.253000000     0.801000000     0.210000000
H     2.187000000     1.322000000     0.014000000
C     1.213000000    -0.521000000    -0.210000000
H     2.169000000    -0.999000000    -0.406000000
C     0.032000000    -1.216000000    -0.320000000
C    -0.118000000    -2.663000000    -0.656000000
H    -0.868000000    -2.931000000    -1.402000000
H     0.841000000    -3.184000000    -0.711000000
H    -0.514000000    -3.041000000     0.289000000
C    -1.173000000    -0.519000000    -0.059000000
H    -2.184000000    -0.917000000    -0.053000000
C    -1.173000000     0.887000000     0.306000000
H    -2.053000000     1.299000000     0.794000000
C     0.053000000     1.520000000     0.326000000
C     0.114000000     3.022000000     0.503000000
O    -0.890000000     3.704000000     0.237000000
O     1.114000000     3.434000000     1.136000000
O    -7.326000000    -2.499000000     0.085000000
H    -6.519000000    -2.408000000    -0.421000000
H    -7.959000000    -2.861000000    -0.535000000
O     4.112000000    -1.103000000    -3.143000000
H     4.465000000    -1.835000000    -3.650000000
H     4.766000000    -0.410000000    -3.235000000
O    -2.177000000     0.238000000    -3.481000000
H    -2.214000000     0.259000000    -4.437000000
H    -1.372000000    -0.241000000    -3.283000000
O    -3.050000000    -3.890000000     0.346000000
H    -2.854000000    -3.328000000     1.096000000
H    -3.688000000    -3.393000000    -0.166000000
O    -4.853000000    -3.468000000    -4.668000000
H    -5.032000000    -4.130000000    -5.337000000
H    -3.966000000    -3.166000000    -4.861000000
O     2.335000000    -1.179000000     3.423000000
H     2.836000000    -1.543000000     4.153000000
H     2.922000000    -0.536000000     3.026000000
O    -2.793000000     1.702000000     4.251000000
H    -2.341000000     2.055000000     5.017000000
H    -2.269000000     0.944000000     3.992000000
O     4.315000000     0.554000000     2.339000000
H     5.131000000     0.886000000     2.713000000
H     4.508000000     0.434000000     1.410000000
O     2.918000000    -5.594000000    -0.011000000
H     2.822000000    -5.362000000    -0.934000000
H     2.905000000    -4.755000000     0.450000000
O     1.127000000     6.337000000    -1.217000000
H     0.630000000     6.155000000    -0.419000000
H     1.885000000     5.755000000    -1.165000000
O    -1.917000000     7.886000000     3.408000000
H    -1.362000000     7.249000000     2.958000000
H    -1.777000000     8.704000000     2.931000000
O     1.981000000     1.902000000     3.057000000
H     2.774000000     1.500000000     2.702000000
H     1.645000000     2.442000000     2.341000000
O     2.382000000     7.706000000     3.021000000
H     3.149000000     7.956000000     2.505000000
H     2.093000000     6.879000000     2.636000000
O    -5.364000000     4.597000000     0.912000000
H    -5.302000000     4.347000000     1.833000000
H    -4.459000000     4.595000000     0.601000000
O     3.073000000     4.818000000     2.587000000
H     2.377000000     4.541000000     1.991000000
H     3.875000000     4.748000000     2.068000000
O     0.236000000    -6.440000000     0.565000000
H     1.012000000    -6.126000000     0.102000000
H    -0.469000000    -6.380000000    -0.080000000
O     2.623000000     4.224000000     5.176000000
H     3.037000000     3.362000000     5.142000000
H     2.701000000     4.562000000     4.284000000
O    -2.198000000     2.804000000    -1.939000000
H    -1.788000000     1.949000000    -1.809000000
H    -1.741000000     3.383000000    -1.329000000
O     2.678000000    -4.714000000    -2.485000000
H     3.034000000    -5.185000000    -3.239000000
H     2.636000000    -3.802000000    -2.771000000
O    -4.673000000     0.014000000    -2.315000000
H    -3.903000000     0.100000000    -2.877000000
H    -4.803000000     0.890000000    -1.951000000
O     0.803000000     4.883000000    -3.919000000
H     0.775000000     5.383000000    -3.103000000
H     1.515000000     4.256000000    -3.792000000
O    -5.013000000    -2.705000000    -1.222000000
H    -5.128000000    -3.243000000    -2.005000000
H    -4.915000000    -1.813000000    -1.556000000
O    -4.616000000     3.687000000     3.441000000
H    -4.326000000     4.453000000     3.936000000
H    -4.031000000     2.984000000     3.723000000
O    -4.542000000    -5.701000000     2.352000000
H    -5.476000000    -5.656000000     2.147000000
H    -4.113000000    -5.283000000     1.606000000
O    -5.547000000     0.669000000     3.931000000
H    -5.752000000     0.287000000     3.078000000
H    -4.661000000     1.016000000     3.831000000
O     6.497000000    -2.662000000    -0.061000000
H     6.384000000    -3.347000000     0.598000000
H     7.369000000    -2.818000000    -0.422000000
O     0.357000000    -0.797000000    -3.522000000
H     1.100000000    -0.566000000    -2.965000000
H     0.530000000    -1.699000000    -3.790000000
O    -5.850000000    -0.776000000     1.798000000
H    -6.448000000    -0.156000000     1.380000000
H    -6.121000000    -1.632000000     1.464000000
O     3.583000000     4.454000000    -3.009000000
H     3.651000000     3.597000000    -2.587000000
H     4.040000000     4.348000000    -3.843000000
O    -2.855000000     5.335000000     1.063000000
H    -2.829000000     5.380000000     2.019000000
H    -2.225000000     4.650000000     0.838000000
O    -1.261000000     5.230000000     4.332000000
H    -1.787000000     5.968000000     4.639000000
H    -1.305000000     4.592000000     5.045000000
O     0.911000000    -3.274000000    -4.292000000
H     0.235000000    -3.898000000    -4.026000000
H     1.348000000    -3.695000000    -5.032000000
O     5.290000000    -0.212000000    -0.146000000
H     5.714000000    -1.063000000    -0.037000000
H     5.778000000     0.210000000    -0.853000000
O     7.015000000     3.448000000    -2.019000000
H     7.729000000     3.459000000    -1.381000000
H     6.219000000     3.485000000    -1.489000000
O    -0.177000000    -5.148000000     3.045000000
H     0.725000000    -5.460000000     3.104000000
H    -0.597000000    -5.744000000     2.424000000
O     2.775000000     1.273000000    -3.343000000
H     3.288000000     0.513000000    -3.068000000
H     3.102000000     1.480000000    -4.218000000
O    -1.229000000     2.647000000    -4.608000000
H    -1.586000000     2.125000000    -3.889000000
H    -0.699000000     3.318000000    -4.177000000
O     0.214000000     5.950000000     1.949000000
H     0.306000000     5.135000000     1.455000000
H    -0.147000000     5.680000000     2.793000000
O     0.841000000     1.326000000     5.543000000
H     1.068000000     1.841000000     4.768000000
H     1.610000000     0.776000000     5.698000000
O     3.455000000    -2.931000000     0.863000000
H     2.972000000    -2.232000000     1.302000000
H     4.291000000    -2.532000000     0.625000000
O     0.139000000    -6.541000000    -2.744000000
H    -0.665000000    -6.202000000    -2.349000000
H     0.842000000    -6.077000000    -2.291000000
O    -3.407000000     7.274000000    -0.589000000
H    -3.079000000     6.524000000    -0.093000000
H    -2.908000000     7.258000000    -1.406000000
O    -2.118000000    -5.803000000    -1.199000000
H    -2.956000000    -6.256000000    -1.288000000
H    -2.327000000    -5.007000000    -0.710000000
O    -3.976000000    -2.605000000     3.812000000
H    -4.083000000    -1.656000000     3.735000000
H    -3.257000000    -2.813000000     3.215000000
O    -3.737000000     3.520000000    -3.951000000
H    -3.193000000     3.173000000    -4.658000000
H    -3.281000000     3.265000000    -3.149000000
O    -1.772000000    -2.794000000     2.552000000
H    -1.198000000    -3.534000000     2.750000000
H    -1.204000000    -2.026000000     2.616000000
O    -0.267000000    -0.672000000     3.414000000
H     0.435000000    -1.272000000     3.666000000
H     0.173000000     0.166000000     3.273000000
O     3.785000000     6.032000000    -0.059000000
H     3.812000000     6.170000000    -1.005000000
H     4.035000000     6.877000000     0.315000000
