161
-3034.16185
C     1.125000000     0.848000000    -0.260000000
H     2.050000000     1.367000000    -0.498000000
C     1.202000000    -0.556000000    -0.224000000
H     2.180000000    -0.982000000    -0.434000000
C     0.026000000    -1.247000000     0.033000000
C     0.068000000    -2.739000000    -0.173000000
H     0.588000000    -2.959000000    -1.108000000
H     0.576000000    -3.264000000     0.639000000
H    -0.922000000    -3.195000000    -0.233000000
C    -1.161000000    -0.536000000     0.237000000
H    -2.116000000    -1.051000000     0.187000000
C    -1.233000000     0.868000000     0.304000000
H    -2.174000000     1.396000000     0.432000000
C    -0.053000000     1.577000000     0.129000000
C    -0.101000000     3.087000000     0.232000000
O    -0.997000000     3.697000000     0.834000000
O     0.942000000     3.691000000    -0.092000000
O     1.879000000     0.786000000    -5.165000000
H     2.109000000     1.689000000    -4.946000000
H     2.278000000     0.262000000    -4.470000000
O    -1.315000000    -1.682000000    -3.051000000
H    -1.518000000    -1.121000000    -3.799000000
H    -0.401000000    -1.935000000    -3.182000000
O    -4.727000000    -3.710000000     1.849000000
H    -4.688000000    -2.864000000     2.294000000
H    -4.128000000    -3.618000000     1.107000000
O    -2.336000000    -5.518000000    -2.649000000
H    -2.896000000    -5.191000000    -3.352000000
H    -2.853000000    -6.206000000    -2.231000000
O     2.531000000    -1.832000000     4.239000000
H     2.988000000    -2.259000000     3.514000000
H     2.141000000    -1.050000000     3.848000000
O    -4.752000000     2.962000000    -2.525000000
H    -4.893000000     2.464000000    -1.721000000
H    -3.841000000     2.784000000    -2.760000000
O    -1.770000000    -2.122000000     2.746000000
H    -1.456000000    -1.774000000     1.912000000
H    -1.595000000    -1.425000000     3.378000000
O     4.563000000     1.522000000     1.726000000
H     5.117000000     2.176000000     2.152000000
H     4.591000000     0.766000000     2.312000000
O     2.821000000     5.188000000    -1.595000000
H     2.199000000     4.706000000    -1.050000000
H     2.807000000     6.078000000    -1.244000000
O     3.292000000    -2.934000000     1.646000000
H     3.843000000    -2.553000000     0.962000000
H     3.129000000    -3.830000000     1.351000000
O     2.633000000     3.354000000    -4.482000000
H     3.240000000     3.605000000    -5.179000000
H     3.198000000     3.142000000    -3.739000000
O     2.274000000     0.626000000     3.165000000
H     2.572000000     1.533000000     3.231000000
H     2.103000000     0.497000000     2.232000000
O    -0.816000000     5.993000000     5.007000000
H    -0.796000000     5.280000000     4.368000000
H    -1.010000000     5.562000000     5.840000000
O     4.046000000     6.110000000    -3.939000000
H     3.301000000     6.430000000    -4.448000000
H     3.653000000     5.721000000    -3.158000000
O    -3.654000000     3.281000000     1.271000000
H    -3.614000000     3.422000000     2.217000000
H    -2.752000000     3.401000000     0.973000000
O    -1.827000000    -5.153000000     3.264000000
H    -1.755000000    -5.040000000     2.316000000
H    -1.135000000    -4.600000000     3.624000000
O     0.698000000     4.483000000     2.854000000
H     0.387000000     4.362000000     1.957000000
H     1.316000000     5.212000000     2.797000000
O    -1.986000000     5.571000000    -1.278000000
H    -1.712000000     4.946000000    -0.607000000
H    -2.693000000     6.069000000    -0.867000000
O     0.542000000    -5.095000000    -3.377000000
H     0.531000000    -4.177000000    -3.650000000
H    -0.192000000    -5.171000000    -2.767000000
O    -3.490000000     0.406000000    -1.424000000
H    -3.538000000    -0.545000000    -1.325000000
H    -2.683000000     0.556000000    -1.917000000
O    -3.930000000    -2.334000000    -2.035000000
H    -4.067000000    -2.653000000    -2.927000000
H    -2.979000000    -2.331000000    -1.925000000
O    -3.060000000     3.064000000     4.017000000
H    -3.226000000     3.583000000     4.804000000
H    -2.170000000     2.731000000     4.133000000
O    -6.121000000    -1.691000000    -0.215000000
H    -5.331000000    -1.849000000    -0.732000000
H    -6.775000000    -1.415000000    -0.857000000
O     2.979000000    -0.830000000    -3.098000000
H     3.093000000    -0.348000000    -2.279000000
H     3.503000000    -1.623000000    -2.983000000
O    -3.815000000    -0.027000000     2.782000000
H    -3.073000000    -0.633000000     2.784000000
H    -3.453000000     0.796000000     3.109000000
O     3.235000000     3.975000000     1.064000000
H     3.431000000     3.055000000     1.240000000
H     2.407000000     3.956000000     0.585000000
O    -1.754000000     6.110000000     1.689000000
H    -2.338000000     6.233000000     2.437000000
H    -1.647000000     5.161000000     1.622000000
O    -7.031000000     2.357000000     2.262000000
H    -6.569000000     1.647000000     1.816000000
H    -7.930000000     2.296000000     1.940000000
O     1.170000000    -2.529000000    -4.161000000
H     1.917000000    -1.996000000    -3.888000000
H     0.884000000    -2.136000000    -4.985000000
O     5.452000000    -0.362000000    -1.530000000
H     5.509000000    -1.176000000    -1.029000000
H     6.307000000    -0.281000000    -1.953000000
O     2.823000000     6.577000000     2.301000000
H     3.229000000     7.257000000     2.839000000
H     3.425000000     6.461000000     1.566000000
O     2.033000000    -6.566000000    -4.870000000
H     1.564000000    -6.003000000    -4.254000000
H     1.901000000    -6.152000000    -5.722000000
O     1.578000000    -5.666000000     1.027000000
H     0.783000000    -5.136000000     0.975000000
H     1.267000000    -6.570000000     0.983000000
O     0.249000000    -3.817000000     4.269000000
H     0.497000000    -4.686000000     4.585000000
H     0.895000000    -3.227000000     4.657000000
O     0.202000000     3.157000000    -3.055000000
H     0.971000000     3.490000000    -3.518000000
H     0.205000000     3.625000000    -2.219000000
O     4.566000000     2.449000000    -2.511000000
H     4.678000000     3.193000000    -1.919000000
H     4.763000000     1.683000000    -1.973000000
O    -6.439000000    -0.540000000     3.149000000
H    -7.002000000    -1.078000000     2.593000000
H    -5.600000000    -0.516000000     2.687000000
O     6.800000000     1.839000000    -0.201000000
H     5.983000000     1.407000000     0.046000000
H     7.453000000     1.138000000    -0.193000000
O    -0.366000000     2.940000000     4.634000000
H     0.114000000     3.409000000     3.952000000
H     0.247000000     2.888000000     5.367000000
O     3.163000000     3.266000000     4.005000000
H     2.341000000     3.512000000     3.581000000
H     3.821000000     3.825000000     3.594000000
O     3.546000000    -3.898000000    -2.706000000
H     2.602000000    -3.973000000    -2.848000000
H     3.925000000    -4.592000000    -3.245000000
O    -2.457000000    -5.227000000     0.381000000
H    -2.819000000    -6.066000000     0.095000000
H    -2.190000000    -4.792000000    -0.429000000
O    -2.180000000     2.035000000    -3.442000000
H    -2.041000000     1.460000000    -4.194000000
H    -1.317000000     2.408000000    -3.262000000
O     0.569000000     7.736000000     1.198000000
H     1.163000000     7.133000000     1.644000000
H    -0.144000000     7.181000000     0.883000000
O     5.555000000    -3.151000000    -0.995000000
H     4.982000000    -3.593000000    -1.621000000
H     5.788000000    -3.830000000    -0.363000000
O    -5.994000000     4.583000000    -0.436000000
H    -5.579000000     4.214000000     0.344000000
H    -6.266000000     3.820000000    -0.947000000
O    -5.240000000     1.698000000     0.004000000
H    -4.679000000     2.212000000     0.585000000
H    -4.639000000     1.101000000    -0.443000000
O    -0.903000000     0.059000000     4.278000000
H    -0.014000000    -0.233000000     4.481000000
H    -1.003000000     0.878000000     4.764000000
