161
-3024.75988
C     0.122000000     0.240000000     1.433000000
H     0.190000000     0.355000000     2.512000000
C     0.524000000    -0.905000000     0.792000000
H     0.976000000    -1.750000000     1.306000000
C     0.395000000    -1.038000000    -0.569000000
C     0.948000000    -2.235000000    -1.397000000
H     1.784000000    -2.570000000    -0.780000000
H     0.212000000    -3.042000000    -1.363000000
H     1.262000000    -1.872000000    -2.377000000
C    -0.153000000     0.036000000    -1.283000000
H    -0.274000000    -0.094000000    -2.356000000
C    -0.574000000     1.246000000    -0.672000000
H    -1.024000000     2.059000000    -1.236000000
C    -0.528000000     1.280000000     0.738000000
C    -1.063000000     2.469000000     1.535000000
O    -1.861000000     3.220000000     1.025000000
O    -0.944000000     2.608000000     2.693000000
O    -2.479000000    -1.996000000    -1.772000000
H    -1.695000000    -2.085000000    -1.231000000
H    -2.470000000    -1.082000000    -2.058000000
O    -3.117000000    -0.787000000     6.188000000
H    -2.444000000    -1.222000000     6.711000000
H    -2.633000000    -0.173000000     5.636000000
O     3.593000000    -1.578000000     2.114000000
H     4.549000000    -1.576000000     2.172000000
H     3.346000000    -0.657000000     2.194000000
O     3.111000000     4.248000000     1.578000000
H     3.996000000     4.578000000     1.423000000
H     2.742000000     4.135000000     0.702000000
O    -1.136000000     2.366000000    -4.290000000
H    -1.566000000     2.778000000    -5.040000000
H    -0.523000000     3.028000000    -3.972000000
O    -0.265000000     5.308000000     1.043000000
H    -0.702000000     5.818000000     1.725000000
H    -0.796000000     4.516000000     0.958000000
O    -3.361000000     3.724000000     6.590000000
H    -4.170000000     3.284000000     6.330000000
H    -2.790000000     3.647000000     5.826000000
O     3.254000000     1.009000000     1.743000000
H     3.631000000     0.671000000     0.930000000
H     2.525000000     1.560000000     1.458000000
O    -3.665000000     5.751000000     3.723000000
H    -2.772000000     5.605000000     4.035000000
H    -4.115000000     6.155000000     4.465000000
O     2.983000000    -1.253000000    -5.210000000
H     3.543000000    -1.914000000    -5.617000000
H     2.964000000    -0.534000000    -5.842000000
O     2.324000000     0.907000000     5.139000000
H     1.815000000     1.259000000     5.869000000
H     2.210000000     1.546000000     4.436000000
O    -2.465000000    -5.406000000    -0.228000000
H    -2.946000000    -6.033000000     0.311000000
H    -1.574000000    -5.753000000    -0.263000000
O    -4.451000000     2.818000000     2.225000000
H    -3.506000000     2.756000000     2.087000000
H    -4.657000000     3.739000000     2.062000000
O     1.637000000     2.704000000     3.404000000
H     2.174000000     3.173000000     2.766000000
H     0.768000000     2.667000000     3.005000000
O    -3.656000000    -0.614000000    -5.389000000
H    -3.199000000    -0.341000000    -6.184000000
H    -3.285000000    -1.473000000    -5.183000000
O    -0.670000000    -4.560000000     4.622000000
H    -0.123000000    -4.803000000     5.369000000
H    -0.076000000    -4.586000000     3.872000000
O    -1.158000000    -5.326000000    -3.524000000
H    -1.405000000    -4.415000000    -3.679000000
H    -0.345000000    -5.441000000    -4.016000000
O    -2.856000000     0.632000000    -2.900000000
H    -2.236000000     1.187000000    -3.372000000
H    -3.361000000     0.198000000    -3.588000000
O    -1.355000000     7.492000000    -0.494000000
H    -1.966000000     7.842000000     0.155000000
H    -1.078000000     6.651000000    -0.131000000
O     0.512000000     1.853000000     6.686000000
H     0.492000000     1.740000000     7.637000000
H    -0.405000000     1.785000000     6.418000000
O    -4.545000000     0.202000000     2.872000000
H    -4.514000000     1.146000000     2.714000000
H    -4.130000000     0.089000000     3.727000000
O     0.243000000     4.482000000    -3.672000000
H    -0.310000000     5.238000000    -3.478000000
H     0.495000000     4.599000000    -4.588000000
O    -3.943000000    -4.608000000    -2.393000000
H    -3.654000000    -3.756000000    -2.718000000
H    -3.248000000    -4.885000000    -1.795000000
O     3.306000000    -4.266000000     1.119000000
H     4.056000000    -4.466000000     0.558000000
H     3.482000000    -3.385000000     1.448000000
O    -1.895000000     1.057000000     4.492000000
H    -1.477000000     0.223000000     4.276000000
H    -1.458000000     1.696000000     3.930000000
O    -3.894000000     4.337000000    -2.769000000
H    -3.602000000     3.787000000    -2.043000000
H    -4.258000000     3.722000000    -3.405000000
O    -2.564000000     7.868000000     2.041000000
H    -3.005000000     8.435000000     2.673000000
H    -2.702000000     6.982000000     2.377000000
O     1.263000000    -1.470000000     4.343000000
H     1.698000000    -0.775000000     4.837000000
H     1.744000000    -1.514000000     3.517000000
O     3.840000000    -4.671000000     3.994000000
H     3.770000000    -4.183000000     3.174000000
H     3.478000000    -4.081000000     4.655000000
O    -0.159000000    -6.640000000     0.396000000
H     0.609000000    -6.811000000    -0.148000000
H    -0.672000000    -7.448000000     0.347000000
O     0.474000000    -2.923000000    -5.533000000
H     1.002000000    -2.198000000    -5.199000000
H     1.111000000    -3.525000000    -5.917000000
O     0.657000000     5.083000000     5.981000000
H     1.494000000     4.731000000     5.679000000
H     0.381000000     4.482000000     6.674000000
O     1.879000000     2.889000000    -2.293000000
H     1.557000000     2.020000000    -2.050000000
H     1.088000000     3.417000000    -2.394000000
O     1.306000000    -7.055000000    -2.069000000
H     1.250000000    -7.876000000    -2.557000000
H     1.312000000    -6.375000000    -2.743000000
O     1.809000000     6.318000000    -0.589000000
H     1.187000000     6.897000000    -1.030000000
H     1.267000000     5.782000000    -0.010000000
O     4.474000000    -1.778000000    -2.872000000
H     3.951000000    -1.571000000    -3.646000000
H     4.663000000    -2.713000000    -2.953000000
O    -1.026000000     4.858000000     3.891000000
H    -1.167000000     4.030000000     3.431000000
H    -0.219000000     4.721000000     4.388000000
O    -1.738000000    -1.829000000     3.791000000
H    -1.009000000    -2.324000000     4.165000000
H    -2.063000000    -2.382000000     3.080000000
O     3.234000000    -7.033000000     0.148000000
H     2.851000000    -6.821000000    -0.703000000
H     3.221000000    -6.205000000     0.629000000
O    -4.722000000    -1.236000000     0.513000000
H    -3.887000000    -1.660000000     0.313000000
H    -4.490000000    -0.506000000     1.086000000
O    -5.208000000     5.579000000     1.133000000
H    -4.547000000     5.825000000     1.780000000
H    -5.547000000     6.413000000     0.808000000
O    -3.032000000    -3.577000000     1.804000000
H    -3.964000000    -3.736000000     1.659000000
H    -2.590000000    -4.217000000     1.247000000
O    -2.028000000    -2.929000000    -5.060000000
H    -2.312000000    -3.657000000    -5.613000000
H    -1.081000000    -2.883000000    -5.193000000
O    -3.982000000     2.203000000    -0.897000000
H    -3.417000000     2.525000000    -0.195000000
H    -3.430000000     1.598000000    -1.391000000
O    -6.610000000     3.315000000    -0.169000000
H    -5.876000000     3.901000000    -0.357000000
H    -6.200000000     2.523000000     0.179000000
O    -1.754000000     6.331000000    -3.007000000
H    -1.743000000     6.705000000    -2.126000000
H    -2.405000000     5.631000000    -2.962000000
O     0.994000000    -4.964000000     2.482000000
H     1.693000000    -4.714000000     1.877000000
H     0.299000000    -5.302000000     1.917000000
O     3.770000000     0.285000000    -0.995000000
H     3.973000000    -0.510000000    -1.488000000
H     4.196000000     0.987000000    -1.488000000
