161
-3044.01507
C     0.047000000     0.620000000     1.333000000
H     0.094000000     0.973000000     2.360000000
C     0.416000000    -0.687000000     1.033000000
H     0.710000000    -1.321000000     1.865000000
C     0.331000000    -1.114000000    -0.309000000
C     0.846000000    -2.522000000    -0.613000000
H     1.700000000    -2.819000000    -0.001000000
H    -0.006000000    -3.182000000    -0.436000000
H     1.064000000    -2.679000000    -1.672000000
C    -0.175000000    -0.301000000    -1.252000000
H    -0.340000000    -0.633000000    -2.274000000
C    -0.557000000     0.978000000    -0.985000000
H    -0.859000000     1.574000000    -1.843000000
C    -0.385000000     1.482000000     0.334000000
C    -0.818000000     2.878000000     0.692000000
O    -1.289000000     3.590000000    -0.134000000
O    -0.781000000     3.169000000     1.907000000
O     2.283000000     3.061000000    -2.392000000
H     1.493000000     3.589000000    -2.516000000
H     2.976000000     3.565000000    -2.818000000
O    -0.561000000    -6.833000000     3.196000000
H    -0.328000000    -5.905000000     3.163000000
H     0.112000000    -7.267000000     2.672000000
O    -0.249000000    -3.868000000    -4.272000000
H    -0.301000000    -4.101000000    -5.199000000
H     0.479000000    -3.248000000    -4.221000000
O    -5.057000000     1.480000000     4.502000000
H    -4.162000000     1.696000000     4.239000000
H    -5.176000000     1.930000000     5.339000000
O     3.882000000    -1.304000000     3.631000000
H     4.650000000    -0.733000000     3.612000000
H     4.072000000    -1.981000000     2.981000000
O     0.683000000     6.533000000     1.232000000
H     0.204000000     6.992000000     0.542000000
H     0.997000000     5.732000000     0.813000000
O    -1.248000000     3.264000000    -5.183000000
H    -0.561000000     2.675000000    -5.494000000
H    -0.783000000     3.928000000    -4.674000000
O    -2.771000000     6.202000000     0.462000000
H    -2.327000000     6.351000000     1.296000000
H    -2.510000000     5.317000000     0.206000000
O     1.416000000     3.265000000     3.297000000
H     1.250000000     2.964000000     4.190000000
H     0.547000000     3.340000000     2.904000000
O     0.725000000     1.483000000    -6.369000000
H     1.319000000     0.834000000    -5.991000000
H     0.033000000     0.964000000    -6.779000000
O     0.668000000     3.101000000     6.134000000
H     0.707000000     4.003000000     5.816000000
H    -0.226000000     2.818000000     5.943000000
O     2.750000000     6.736000000     3.611000000
H     2.287000000     5.960000000     3.294000000
H     2.148000000     7.460000000     3.442000000
O    -2.650000000    -4.770000000    -0.304000000
H    -3.387000000    -4.976000000    -0.879000000
H    -2.127000000    -5.572000000    -0.289000000
O    -3.751000000     1.983000000     0.923000000
H    -4.152000000     2.209000000     0.084000000
H    -3.002000000     2.574000000     0.998000000
O    -1.713000000     5.543000000     3.049000000
H    -0.981000000     5.995000000     2.628000000
H    -1.668000000     4.649000000     2.711000000
O     0.153000000    -3.233000000     5.069000000
H     1.108000000    -3.254000000     5.133000000
H    -0.052000000    -3.812000000     4.336000000
O    -2.290000000    -2.697000000    -2.626000000
H    -2.421000000    -3.273000000    -1.874000000
H    -1.601000000    -3.122000000    -3.137000000
O    -3.077000000     1.622000000    -4.508000000
H    -2.380000000     2.273000000    -4.595000000
H    -3.618000000     1.745000000    -5.288000000
O    -2.041000000     0.865000000     6.387000000
H    -1.391000000     0.172000000     6.276000000
H    -1.943000000     1.412000000     5.607000000
O    -1.688000000     5.899000000    -3.756000000
H    -2.308000000     5.623000000    -4.431000000
H    -1.363000000     6.746000000    -4.061000000
O    -0.056000000    -0.979000000     6.120000000
H    -0.070000000    -1.849000000     5.719000000
H     0.662000000    -0.525000000     5.679000000
O    -5.019000000    -2.211000000    -2.698000000
H    -5.236000000    -3.139000000    -2.604000000
H    -4.144000000    -2.131000000    -2.319000000
O     3.882000000    -4.062000000    -2.124000000
H     3.622000000    -3.183000000    -2.398000000
H     3.125000000    -4.611000000    -2.331000000
O     2.355000000     0.309000000    -3.454000000
H     1.890000000     0.995000000    -2.974000000
H     3.271000000     0.586000000    -3.439000000
O     3.999000000    -4.042000000     1.518000000
H     4.551000000    -3.591000000     0.879000000
H     3.544000000    -4.714000000     1.010000000
O    -2.130000000     2.009000000     3.806000000
H    -2.272000000     1.148000000     3.412000000
H    -1.692000000     2.516000000     3.123000000
O    -0.481000000     7.532000000    -1.084000000
H    -1.350000000     7.353000000    -1.443000000
H    -0.495000000     8.466000000    -0.878000000
O     2.013000000     0.241000000     5.096000000
H     2.799000000     0.535000000     5.556000000
H     2.344000000    -0.197000000     4.312000000
O     4.100000000     3.345000000     3.410000000
H     3.168000000     3.220000000     3.233000000
H     4.145000000     3.514000000     4.351000000
O     5.976000000    -3.997000000    -0.258000000
H     6.254000000    -4.911000000    -0.311000000
H     5.460000000    -3.857000000    -1.052000000
O     3.546000000    -5.477000000     3.734000000
H     3.592000000    -4.980000000     2.917000000
H     2.989000000    -4.948000000     4.305000000
O    -1.055000000    -7.070000000    -1.030000000
H    -0.302000000    -7.408000000    -0.545000000
H    -1.530000000    -7.852000000    -1.310000000
O    -1.191000000    -0.038000000    -7.132000000
H    -1.543000000    -0.340000000    -6.295000000
H    -1.891000000     0.496000000    -7.508000000
O     2.833000000    -3.243000000     5.298000000
H     3.432000000    -3.463000000     6.011000000
H     3.047000000    -2.337000000     5.075000000
O    -1.732000000    -0.681000000    -4.658000000
H    -2.118000000     0.174000000    -4.465000000
H    -1.934000000    -1.214000000    -3.889000000
O     0.164000000     4.553000000    -2.452000000
H    -0.430000000     5.146000000    -2.911000000
H    -0.238000000     4.431000000    -1.592000000
O     1.598000000    -5.452000000    -2.835000000
H     1.733000000    -6.390000000    -2.967000000
H     1.066000000    -5.179000000    -3.582000000
O     2.491000000    -2.444000000    -4.065000000
H     2.279000000    -1.523000000    -3.915000000
H     3.066000000    -2.435000000    -4.830000000
O     1.962000000     4.038000000     0.125000000
H     2.087000000     3.351000000     0.780000000
H     1.822000000     3.564000000    -0.695000000
O    -4.702000000     5.668000000     3.686000000
H    -3.767000000     5.460000000     3.681000000
H    -4.941000000     5.676000000     4.613000000
O    -2.602000000    -0.517000000     2.568000000
H    -2.181000000    -0.530000000     1.708000000
H    -2.640000000    -1.437000000     2.829000000
O     2.388000000    -5.543000000     0.113000000
H     2.451000000    -6.498000000     0.141000000
H     1.774000000    -5.364000000    -0.599000000
O    -5.500000000     6.274000000     1.210000000
H    -4.620000000     6.469000000     0.888000000
H    -5.381000000     6.102000000     2.144000000
O    -3.008000000    -3.235000000     2.125000000
H    -3.916000000    -2.937000000     2.072000000
H    -2.890000000    -3.782000000     1.348000000
O    -3.601000000     3.312000000    -1.603000000
H    -2.704000000     3.434000000    -1.292000000
H    -3.535000000     2.616000000    -2.257000000
O    -6.077000000     4.025000000    -0.946000000
H    -5.924000000     4.803000000    -0.409000000
H    -5.200000000     3.705000000    -1.158000000
O     0.602000000    -4.494000000     2.536000000
H     1.193000000    -4.788000000     1.842000000
H     0.369000000    -3.599000000     2.289000000
O     3.827000000     0.988000000    -0.227000000
H     4.480000000     0.321000000    -0.015000000
H     2.986000000     0.562000000    -0.060000000
