161
-3035.33579
C    -0.886000000    -0.128000000     1.111000000
H    -1.509000000    -0.453000000     1.941000000
C    -0.505000000    -1.161000000     0.201000000
H    -0.933000000    -2.140000000     0.397000000
C     0.280000000    -0.851000000    -0.890000000
C     0.647000000    -1.962000000    -1.819000000
H    -0.326000000    -2.187000000    -2.261000000
H     1.308000000    -1.695000000    -2.647000000
H     1.059000000    -2.859000000    -1.351000000
C     0.799000000     0.467000000    -0.989000000
H     1.500000000     0.743000000    -1.774000000
C     0.512000000     1.423000000    -0.014000000
H     1.064000000     2.360000000    -0.012000000
C    -0.373000000     1.115000000     1.028000000
C    -0.734000000     2.150000000     2.093000000
O    -0.453000000     3.322000000     1.933000000
O    -1.443000000     1.856000000     3.051000000
O     4.148000000     1.741000000    -3.608000000
H     5.037000000     2.089000000    -3.684000000
H     3.895000000     1.532000000    -4.507000000
O    -0.948000000    -3.779000000     2.874000000
H    -0.612000000    -3.082000000     3.437000000
H    -1.798000000    -3.457000000     2.574000000
O    -2.737000000     4.478000000     6.096000000
H    -2.409000000     5.230000000     6.590000000
H    -1.951000000     3.992000000     5.849000000
O    -4.068000000    -3.973000000     4.169000000
H    -3.923000000    -3.056000000     4.404000000
H    -5.019000000    -4.059000000     4.112000000
O    -3.539000000    -0.133000000    -1.162000000
H    -3.890000000    -0.888000000    -0.689000000
H    -2.975000000     0.307000000    -0.526000000
O     0.063000000    -4.806000000     0.162000000
H    -0.365000000    -4.237000000     0.801000000
H     0.842000000    -4.320000000    -0.109000000
O     3.285000000    -2.703000000    -4.967000000
H     2.353000000    -2.494000000    -4.916000000
H     3.706000000    -1.870000000    -5.179000000
O    -0.775000000    -6.602000000     3.487000000
H    -1.287000000    -6.018000000     2.928000000
H     0.019000000    -6.107000000     3.687000000
O    -0.865000000     5.794000000     1.513000000
H    -1.456000000     5.627000000     0.779000000
H    -0.675000000     4.927000000     1.870000000
O     1.997000000     4.439000000     1.362000000
H     2.679000000     3.925000000     1.794000000
H     1.212000000     3.895000000     1.422000000
O     1.684000000     0.603000000     5.409000000
H     2.222000000     0.371000000     6.166000000
H     2.308000000     0.941000000     4.766000000
O     1.833000000     5.899000000    -3.217000000
H     2.324000000     5.487000000    -2.506000000
H     1.012000000     6.176000000    -2.812000000
O    -5.436000000     5.509000000     1.813000000
H    -4.642000000     5.128000000     2.189000000
H    -5.173000000     6.389000000     1.540000000
O    -0.856000000     2.189000000    -4.888000000
H     0.099000000     2.168000000    -4.952000000
H    -1.105000000     1.282000000    -4.710000000
O    -3.140000000    -4.264000000     0.179000000
H    -2.712000000    -5.036000000     0.548000000
H    -3.905000000    -4.611000000    -0.280000000
O    -2.657000000     5.852000000    -0.655000000
H    -3.399000000     6.261000000    -0.209000000
H    -2.972000000     4.979000000    -0.890000000
O    -1.307000000     0.101000000     5.119000000
H    -1.224000000     0.741000000     4.413000000
H    -0.463000000     0.129000000     5.569000000
O    -0.172000000     1.813000000     7.643000000
H     0.739000000     1.520000000     7.605000000
H    -0.279000000     2.364000000     6.867000000
O    -3.889000000    -1.795000000     1.049000000
H    -4.506000000    -1.884000000     1.776000000
H    -3.844000000    -2.670000000     0.665000000
O     1.369000000    -2.481000000     4.371000000
H     1.394000000    -1.665000000     3.872000000
H     1.925000000    -2.315000000     5.132000000
O     4.948000000    -3.450000000    -2.654000000
H     4.412000000    -3.081000000    -3.356000000
H     4.387000000    -4.108000000    -2.244000000
O     2.987000000    -4.871000000    -1.218000000
H     3.308000000    -5.699000000    -1.577000000
H     3.473000000    -4.759000000    -0.402000000
O     1.839000000    -0.549000000     2.473000000
H     1.342000000    -0.678000000     1.665000000
H     2.300000000     0.280000000     2.340000000
O    -4.021000000     1.281000000     4.039000000
H    -4.478000000     1.062000000     3.227000000
H    -3.254000000     1.778000000     3.756000000
O    -2.126000000     7.222000000     4.249000000
H    -2.232000000     7.079000000     3.309000000
H    -1.399000000     6.650000000     4.498000000
O    -0.801000000    -6.773000000    -3.932000000
H    -0.859000000    -6.721000000    -2.978000000
H    -1.427000000    -6.120000000    -4.246000000
O     5.385000000     1.834000000     0.348000000
H     5.602000000     1.071000000    -0.188000000
H     5.196000000     2.526000000    -0.286000000
O    -0.463000000     3.335000000     5.378000000
H     0.036000000     4.103000000     5.100000000
H    -0.663000000     2.872000000     4.564000000
O     5.653000000     4.491000000    -0.855000000
H     6.215000000     4.488000000    -0.080000000
H     4.813000000     4.827000000    -0.540000000
O     2.306000000    -5.456000000    -5.887000000
H     2.493000000    -4.926000000    -5.112000000
H     1.443000000    -5.834000000    -5.716000000
O    -4.112000000    -1.988000000    -4.081000000
H    -4.881000000    -2.468000000    -4.389000000
H    -4.450000000    -1.125000000    -3.841000000
O     0.544000000     5.961000000     4.285000000
H     0.477000000     6.594000000     3.571000000
H     1.280000000     6.272000000     4.813000000
O    -1.350000000    -0.279000000    -4.220000000
H    -2.085000000    -0.826000000    -3.942000000
H    -0.614000000    -0.886000000    -4.297000000
O    -3.162000000     4.146000000     2.930000000
H    -2.349000000     3.644000000     2.872000000
H    -3.057000000     4.683000000     3.716000000
O     3.067000000     5.550000000    -0.717000000
H     2.892000000     6.490000000    -0.776000000
H     2.481000000     5.241000000    -0.025000000
O    -3.478000000    -1.364000000     5.016000000
H    -2.654000000    -0.878000000     5.006000000
H    -4.096000000    -0.797000000     4.554000000
O     1.350000000    -4.599000000    -3.307000000
H     0.488000000    -4.989000000    -3.162000000
H     1.752000000    -4.575000000    -2.439000000
O     0.635000000    -2.242000000    -5.050000000
H     0.267000000    -2.883000000    -4.442000000
H     0.223000000    -2.445000000    -5.890000000
O     3.277000000     1.883000000     1.930000000
H     4.143000000     1.818000000     1.528000000
H     3.448000000     2.204000000     2.816000000
O    -2.672000000     0.410000000     7.804000000
H    -2.440000000    -0.189000000     7.093000000
H    -1.997000000     1.088000000     7.775000000
O     2.596000000     6.928000000     1.846000000
H     1.790000000     7.396000000     1.629000000
H     2.374000000     6.004000000     1.735000000
O    -3.192000000     3.323000000    -1.573000000
H    -4.077000000     3.147000000    -1.253000000
H    -2.769000000     2.465000000    -1.592000000
O    -0.862000000    -7.347000000    -0.761000000
H    -1.815000000    -7.435000000    -0.763000000
H    -0.705000000    -6.453000000    -0.458000000
O    -1.829000000    -3.967000000    -4.021000000
H    -2.272000000    -4.461000000    -4.712000000
H    -2.437000000    -3.261000000    -3.803000000
O    -5.300000000     1.058000000     1.543000000
H    -5.417000000     1.468000000     0.686000000
H    -4.913000000     0.204000000     1.350000000
O     5.263000000    -0.032000000    -1.880000000
H     4.734000000     0.558000000    -2.417000000
H     5.090000000    -0.902000000    -2.237000000
O    -5.233000000     3.205000000     5.725000000
H    -4.444000000     3.715000000     5.909000000
H    -5.065000000     2.802000000     4.874000000
O     0.117000000     8.315000000     0.711000000
H    -0.191000000     7.409000000     0.756000000
H     0.869000000     8.283000000     0.119000000
