161
-3057.96796
C     1.044000000     0.760000000     0.682000000
H     1.664000000     1.368000000     1.336000000
C     0.142000000    -0.060000000     1.282000000
H     0.197000000    -0.164000000     2.362000000
C    -0.845000000    -0.736000000     0.551000000
C    -1.747000000    -1.660000000     1.319000000
H    -1.508000000    -1.705000000     2.384000000
H    -2.784000000    -1.319000000     1.338000000
H    -1.626000000    -2.682000000     0.955000000
C    -0.853000000    -0.590000000    -0.869000000
H    -1.590000000    -1.144000000    -1.444000000
C     0.122000000     0.197000000    -1.522000000
H     0.002000000     0.228000000    -2.602000000
C     1.135000000     0.866000000    -0.784000000
C     2.041000000     1.881000000    -1.471000000
O     1.973000000     2.061000000    -2.697000000
O     2.641000000     2.703000000    -0.822000000
O     5.603000000     2.910000000     2.958000000
H     5.025000000     3.249000000     2.275000000
H     5.926000000     2.080000000     2.608000000
O    -5.172000000     1.298000000     3.184000000
H    -5.726000000     1.642000000     3.885000000
H    -5.004000000     2.052000000     2.619000000
O    -5.885000000    -4.712000000     2.961000000
H    -6.435000000    -4.133000000     3.490000000
H    -5.067000000    -4.780000000     3.453000000
O     2.473000000     4.823000000    -2.921000000
H     2.625000000     3.918000000    -2.648000000
H     3.107000000     5.334000000    -2.418000000
O    -0.787000000     0.369000000     6.959000000
H    -1.399000000     0.503000000     6.234000000
H    -1.270000000    -0.173000000     7.582000000
O     3.936000000    -0.315000000     0.658000000
H     3.961000000    -0.941000000     1.382000000
H     3.053000000     0.054000000     0.691000000
O     4.907000000     1.288000000    -5.689000000
H     4.166000000     0.964000000    -5.177000000
H     4.675000000     1.093000000    -6.597000000
O    -3.401000000    -3.394000000     3.698000000
H    -2.743000000    -2.934000000     4.220000000
H    -3.875000000    -2.699000000     3.243000000
O    -1.931000000     2.813000000    -6.638000000
H    -2.083000000     2.636000000    -7.566000000
H    -1.938000000     1.949000000    -6.225000000
O     1.853000000    -5.287000000     3.374000000
H     2.635000000    -5.217000000     2.825000000
H     1.603000000    -4.380000000     3.551000000
O    -1.927000000    -5.088000000    -1.925000000
H    -2.721000000    -5.555000000    -1.666000000
H    -2.246000000    -4.290000000    -2.347000000
O     1.530000000     7.417000000    -0.656000000
H     1.374000000     6.484000000    -0.804000000
H     2.337000000     7.447000000    -0.142000000
O    -0.215000000     3.074000000    -3.993000000
H     0.099000000     3.619000000    -4.715000000
H     0.574000000     2.852000000    -3.500000000
O    -3.096000000    -0.891000000     5.341000000
H    -2.947000000    -0.321000000     4.586000000
H    -2.358000000    -1.500000000     5.331000000
O     0.554000000    -5.092000000    -3.037000000
H     0.036000000    -5.525000000    -3.715000000
H    -0.046000000    -5.004000000    -2.296000000
O     3.472000000     5.482000000    -5.552000000
H     2.998000000     4.848000000    -6.089000000
H     3.148000000     5.334000000    -4.664000000
O    -4.176000000     1.910000000    -0.417000000
H    -3.660000000     2.104000000    -1.199000000
H    -4.892000000     1.359000000    -0.733000000
O    -3.286000000    -3.085000000    -2.993000000
H    -4.081000000    -3.437000000    -3.395000000
H    -3.461000000    -2.149000000    -2.895000000
O     3.722000000     6.489000000     0.693000000
H     3.985000000     5.622000000     1.002000000
H     4.359000000     6.704000000     0.012000000
O     5.304000000     2.079000000    -1.330000000
H     4.396000000     2.363000000    -1.230000000
H     5.244000000     1.244000000    -1.794000000
O    -3.669000000    -6.615000000    -0.398000000
H    -3.229000000    -7.462000000    -0.476000000
H    -3.524000000    -6.353000000     0.511000000
O     4.367000000    -2.281000000    -3.702000000
H     3.795000000    -1.672000000    -4.170000000
H     3.774000000    -2.798000000    -3.158000000
O     7.247000000     3.866000000    -1.137000000
H     7.040000000     4.298000000    -0.309000000
H     6.527000000     3.249000000    -1.273000000
O    -3.992000000    -0.553000000    -3.018000000
H    -3.611000000     0.301000000    -2.813000000
H    -4.384000000    -0.439000000    -3.884000000
O     6.189000000     1.037000000     1.080000000
H     6.164000000     1.481000000     0.232000000
H     5.461000000     0.417000000     1.047000000
O    -2.665000000    -5.652000000     2.133000000
H    -1.748000000    -5.526000000     1.889000000
H    -2.889000000    -4.868000000     2.634000000
O    -4.598000000     3.541000000     1.627000000
H    -4.555000000     2.848000000     0.969000000
H    -3.923000000     4.166000000     1.362000000
O    -2.093000000     2.110000000     4.911000000
H    -2.774000000     2.294000000     4.264000000
H    -1.825000000     2.972000000     5.229000000
O    -6.429000000    -2.730000000     0.173000000
H    -6.981000000    -2.177000000     0.727000000
H    -6.054000000    -3.373000000     0.775000000
O     5.966000000    -0.056000000    -2.723000000
H     5.468000000    -0.805000000    -3.049000000
H     6.723000000     0.000000000    -3.307000000
O     2.129000000     1.369000000     6.209000000
H     1.409000000     1.283000000     6.833000000
H     2.147000000     2.300000000     5.990000000
O     6.473000000     2.828000000    -4.223000000
H     5.960000000     2.460000000    -4.943000000
H     5.982000000     2.596000000    -3.435000000
O     3.655000000     3.827000000     1.345000000
H     3.360000000     3.418000000     0.531000000
H     2.853000000     4.151000000     1.755000000
O     0.441000000     3.479000000     2.913000000
H     0.058000000     4.154000000     3.474000000
H    -0.304000000     2.944000000     2.639000000
O     2.847000000    -0.069000000    -4.359000000
H     2.114000000    -0.160000000    -4.969000000
H     2.628000000     0.701000000    -3.835000000
O    -0.685000000     5.395000000    -2.365000000
H    -0.273000000     5.141000000    -1.539000000
H    -0.513000000     4.661000000    -2.955000000
O    -5.287000000    -1.424000000     2.950000000
H    -5.184000000    -0.494000000     3.149000000
H    -6.227000000    -1.535000000     2.803000000
O     0.711000000     4.283000000     0.285000000
H     0.629000000     4.040000000     1.207000000
H     1.394000000     3.706000000    -0.055000000
O     2.445000000    -0.216000000     3.845000000
H     2.222000000     0.217000000     4.669000000
H     3.295000000    -0.623000000     4.010000000
O    -0.913000000    -2.356000000     4.907000000
H    -0.107000000    -2.538000000     4.424000000
H    -0.695000000    -2.553000000     5.818000000
O     1.278000000    -3.174000000     0.338000000
H     0.602000000    -2.825000000    -0.243000000
H     2.005000000    -3.393000000    -0.246000000
O    -2.539000000    -3.821000000    -6.133000000
H    -2.477000000    -4.764000000    -5.986000000
H    -2.494000000    -3.438000000    -5.257000000
O     1.318000000    -2.523000000     3.158000000
H     1.030000000    -2.370000000     2.258000000
H     1.727000000    -1.698000000     3.422000000
O    -0.037000000    -5.271000000     1.367000000
H     0.564000000    -5.292000000     2.111000000
H     0.368000000    -4.662000000     0.749000000
O    -1.821000000     2.029000000     1.896000000
H    -1.104000000     1.474000000     1.588000000
H    -2.603000000     1.657000000     1.488000000
O    -1.428000000     0.070000000    -4.819000000
H    -1.803000000    -0.677000000    -4.352000000
H    -1.688000000     0.832000000    -4.301000000
O    -2.773000000     2.189000000    -3.239000000
H    -3.427000000     2.874000000    -3.102000000
H    -1.981000000     2.662000000    -3.495000000
O     0.863000000    -0.098000000    -6.185000000
H     0.151000000     0.058000000    -5.565000000
H     0.530000000    -0.785000000    -6.763000000
