161
-3030.10762
C     0.969000000     0.983000000     0.521000000
H     1.615000000     1.617000000     1.123000000
C    -0.001000000     0.243000000     1.236000000
H    -0.016000000     0.254000000     2.323000000
C    -0.856000000    -0.635000000     0.588000000
C    -1.664000000    -1.506000000     1.580000000
H    -1.129000000    -1.566000000     2.530000000
H    -2.599000000    -0.997000000     1.820000000
H    -2.021000000    -2.459000000     1.182000000
C    -0.841000000    -0.705000000    -0.802000000
H    -1.376000000    -1.449000000    -1.387000000
C     0.041000000     0.077000000    -1.557000000
H     0.130000000    -0.121000000    -2.622000000
C     0.987000000     0.865000000    -0.850000000
C     2.048000000     1.577000000    -1.676000000
O     1.960000000     1.487000000    -2.907000000
O     2.747000000     2.338000000    -1.098000000
O    -3.911000000    -0.952000000     4.404000000
H    -4.662000000    -0.420000000     4.668000000
H    -3.528000000    -1.251000000     5.229000000
O    -4.195000000     2.561000000     4.605000000
H    -3.494000000     2.329000000     3.996000000
H    -4.735000000     1.772000000     4.659000000
O     3.009000000     6.131000000    -5.257000000
H     2.194000000     6.623000000    -5.163000000
H     2.959000000     5.453000000    -4.583000000
O     1.821000000     1.673000000     6.010000000
H     1.012000000     1.477000000     5.538000000
H     1.610000000     1.505000000     6.928000000
O     4.688000000    -0.786000000    -0.358000000
H     3.848000000    -0.966000000     0.064000000
H     5.047000000    -0.045000000     0.129000000
O     3.874000000     3.701000000     0.835000000
H     3.285000000     4.409000000     0.577000000
H     3.754000000     3.032000000     0.160000000
O     0.149000000    -2.751000000     4.892000000
H    -0.307000000    -3.244000000     4.209000000
H     0.936000000    -2.418000000     4.461000000
O    -1.787000000    -4.373000000     3.781000000
H    -2.283000000    -4.673000000     3.019000000
H    -2.455000000    -4.128000000     4.421000000
O    -3.737000000    -3.849000000    -0.972000000
H    -3.254000000    -4.125000000    -1.750000000
H    -4.533000000    -3.443000000    -1.315000000
O    -2.723000000     1.811000000    -3.190000000
H    -3.338000000     2.521000000    -3.006000000
H    -2.304000000     2.064000000    -4.012000000
O    -0.579000000     0.860000000     4.713000000
H    -1.250000000     1.110000000     4.077000000
H    -0.274000000     0.003000000     4.415000000
O     2.573000000    -1.716000000     0.941000000
H     2.558000000    -1.824000000     1.892000000
H     1.713000000    -1.353000000     0.727000000
O     3.354000000     3.208000000    -6.507000000
H     3.258000000     4.143000000    -6.328000000
H     2.544000000     2.817000000    -6.181000000
O    -3.056000000     2.214000000    -0.341000000
H    -3.982000000     2.035000000    -0.176000000
H    -2.888000000     1.833000000    -1.203000000
O    -0.069000000    -3.996000000    -2.761000000
H    -0.915000000    -4.391000000    -2.972000000
H     0.100000000    -3.392000000    -3.484000000
O     4.791000000     5.792000000    -2.337000000
H     4.113000000     6.007000000    -1.696000000
H     4.445000000     5.032000000    -2.805000000
O     5.095000000     2.530000000    -2.636000000
H     4.257000000     2.574000000    -2.175000000
H     5.266000000     1.593000000    -2.733000000
O    -0.778000000    -6.384000000     0.942000000
H    -0.018000000    -5.833000000     1.131000000
H    -1.531000000    -5.843000000     1.177000000
O     2.495000000    -0.500000000    -4.523000000
H     2.123000000     0.172000000    -3.951000000
H     3.345000000    -0.701000000    -4.134000000
O    -6.877000000    -4.474000000     1.704000000
H    -6.451000000    -5.165000000     2.211000000
H    -6.221000000    -3.778000000     1.650000000
O    -7.140000000    -2.165000000     3.847000000
H    -6.469000000    -2.032000000     3.177000000
H    -6.662000000    -2.512000000     4.600000000
O    -3.752000000    -0.603000000    -3.072000000
H    -4.270000000    -0.531000000    -2.270000000
H    -3.278000000     0.228000000    -3.127000000
O    -3.291000000    -5.044000000     1.425000000
H    -3.507000000    -4.585000000     0.613000000
H    -4.128000000    -5.389000000     1.735000000
O    -0.776000000     3.519000000     5.911000000
H    -0.467000000     2.635000000     5.714000000
H    -0.788000000     3.964000000     5.063000000
O     0.053000000     4.472000000     2.555000000
H     0.240000000     5.408000000     2.495000000
H     0.141000000     4.152000000     1.657000000
O    -4.953000000    -2.273000000     1.833000000
H    -4.321000000    -2.282000000     1.114000000
H    -4.429000000    -2.077000000     2.610000000
O     7.320000000     3.516000000    -1.137000000
H     6.739000000     3.072000000    -0.520000000
H     6.741000000     3.821000000    -1.835000000
O    -7.478000000    -1.497000000    -0.019000000
H    -8.047000000    -0.818000000     0.345000000
H    -6.959000000    -1.798000000     0.727000000
O    -0.428000000     4.461000000    -3.410000000
H    -0.898000000     5.292000000    -3.477000000
H    -1.029000000     3.815000000    -3.781000000
O     5.596000000     3.930000000    -4.972000000
H     4.779000000     3.703000000    -5.415000000
H     5.569000000     3.438000000    -4.152000000
O     2.790000000     6.155000000    -0.460000000
H     1.854000000     6.159000000    -0.659000000
H     2.892000000     6.816000000     0.225000000
O     4.150000000     1.200000000     4.417000000
H     3.574000000     1.070000000     5.171000000
H     3.969000000     2.095000000     4.128000000
O     1.049000000     1.934000000    -5.408000000
H     0.830000000     1.011000000    -5.532000000
H     1.389000000     1.982000000    -4.515000000
O     0.491000000     4.543000000    -0.768000000
H     0.237000000     4.593000000    -1.690000000
H     1.333000000     4.087000000    -0.777000000
O    -4.072000000    -3.921000000     5.252000000
H    -3.274000000    -3.567000000     5.644000000
H    -4.781000000    -3.567000000     5.789000000
O     2.351000000     4.090000000    -3.576000000
H     2.462000000     3.151000000    -3.425000000
H     1.462000000     4.175000000    -3.919000000
O     2.029000000    -5.419000000    -2.075000000
H     2.357000000    -5.142000000    -1.220000000
H     1.280000000    -4.847000000    -2.241000000
O    -3.159000000    -4.711000000    -3.570000000
H    -2.824000000    -5.507000000    -3.983000000
H    -4.104000000    -4.850000000    -3.514000000
O     5.618000000    -0.104000000    -2.813000000
H     5.725000000    -0.549000000    -3.653000000
H     4.989000000    -0.643000000    -2.334000000
O     0.910000000    -2.630000000    -4.799000000
H     0.481000000    -2.556000000    -5.652000000
H     1.672000000    -2.054000000    -4.863000000
O    -3.009000000    -2.436000000    -4.660000000
H    -2.966000000    -3.284000000    -4.218000000
H    -3.329000000    -1.833000000    -3.989000000
O     5.958000000     1.952000000     1.046000000
H     5.432000000     2.552000000     1.575000000
H     6.650000000     1.656000000     1.637000000
O     2.758000000    -1.182000000     3.801000000
H     2.547000000    -1.233000000     4.733000000
H     3.421000000    -0.494000000     3.743000000
O     1.462000000    -4.934000000     1.810000000
H     2.087000000    -5.109000000     1.106000000
H     1.926000000    -5.181000000     2.610000000
O    -1.940000000     2.437000000     2.865000000
H    -1.208000000     3.053000000     2.835000000
H    -2.035000000     2.134000000     1.962000000
O    -5.231000000     0.193000000    -0.437000000
H    -5.878000000    -0.429000000    -0.769000000
H    -5.688000000     1.034000000    -0.431000000
O    -2.008000000    -2.653000000     6.592000000
H    -1.335000000    -2.713000000     5.914000000
H    -1.798000000    -1.850000000     7.067000000
O    -1.642000000     2.781000000    -5.466000000
H    -2.172000000     2.365000000    -6.145000000
H    -0.760000000     2.438000000    -5.606000000
