161
-3031.19297
C     1.135000000     0.862000000     0.404000000
H     1.995000000     1.398000000     0.798000000
C     0.277000000     0.175000000     1.267000000
H     0.456000000     0.231000000     2.338000000
C    -0.723000000    -0.643000000     0.732000000
C    -1.490000000    -1.434000000     1.713000000
H    -0.799000000    -1.975000000     2.363000000
H    -2.117000000    -0.819000000     2.362000000
H    -2.034000000    -2.258000000     1.247000000
C    -0.869000000    -0.762000000    -0.623000000
H    -1.679000000    -1.385000000    -0.993000000
C    -0.194000000     0.026000000    -1.503000000
H    -0.356000000    -0.043000000    -2.575000000
C     0.844000000     0.849000000    -1.000000000
C     1.682000000     1.650000000    -1.942000000
O     1.500000000     1.640000000    -3.145000000
O     2.375000000     2.495000000    -1.443000000
O     6.031000000     3.068000000     1.059000000
H     5.526000000     2.499000000     0.478000000
H     6.874000000     3.173000000     0.617000000
O    -3.338000000     1.217000000     5.937000000
H    -3.029000000     1.225000000     6.842000000
H    -3.429000000     0.289000000     5.723000000
O     3.408000000     0.198000000    -4.425000000
H     4.146000000     0.750000000    -4.685000000
H     2.793000000     0.802000000    -4.008000000
O    -4.604000000     0.163000000    -1.590000000
H    -5.113000000    -0.317000000    -0.937000000
H    -4.075000000     0.775000000    -1.079000000
O    -1.244000000    -1.218000000    -7.514000000
H    -1.080000000    -0.345000000    -7.869000000
H    -1.592000000    -1.058000000    -6.637000000
O    -5.429000000    -3.524000000    -0.937000000
H    -6.054000000    -4.131000000    -1.333000000
H    -4.704000000    -4.080000000    -0.651000000
O     1.771000000    -1.612000000     5.221000000
H     2.282000000    -0.940000000     5.673000000
H     0.872000000    -1.471000000     5.519000000
O     3.584000000     3.914000000    -3.429000000
H     3.091000000     3.371000000    -2.813000000
H     4.102000000     4.496000000    -2.873000000
O     1.300000000     7.686000000    -1.235000000
H     0.742000000     8.283000000    -0.738000000
H     1.359000000     6.902000000    -0.688000000
O     1.571000000     5.051000000    -0.487000000
H     2.359000000     5.063000000     0.055000000
H     1.600000000     4.205000000    -0.934000000
O     3.444000000    -2.357000000     0.181000000
H     2.847000000    -2.329000000    -0.567000000
H     2.874000000    -2.485000000     0.939000000
O    -1.193000000    -3.391000000     4.913000000
H    -1.904000000    -3.999000000     5.117000000
H    -1.619000000    -2.670000000     4.450000000
O    -2.348000000    -3.161000000    -3.292000000
H    -1.517000000    -3.372000000    -3.717000000
H    -2.314000000    -3.625000000    -2.455000000
O    -5.644000000     1.132000000     1.726000000
H    -5.929000000     0.353000000     1.247000000
H    -5.942000000     0.983000000     2.623000000
O     4.875000000     1.421000000    -0.782000000
H     4.799000000     0.496000000    -0.549000000
H     3.987000000     1.681000000    -1.028000000
O    -1.048000000     4.480000000    -0.749000000
H    -0.194000000     4.912000000    -0.770000000
H    -1.628000000     5.117000000    -0.330000000
O    -2.873000000    -4.719000000    -0.712000000
H    -3.191000000    -5.253000000     0.015000000
H    -1.956000000    -4.545000000    -0.498000000
O     3.704000000     0.733000000     2.868000000
H     4.635000000     0.585000000     2.701000000
H     3.378000000    -0.114000000     3.173000000
O    -2.299000000     1.303000000    -6.426000000
H    -2.928000000     1.380000000    -7.144000000
H    -2.838000000     1.146000000    -5.651000000
O     0.736000000     3.603000000    -4.754000000
H     0.972000000     2.813000000    -4.268000000
H     1.161000000     4.314000000    -4.275000000
O     0.538000000    -0.165000000    -5.207000000
H     0.360000000     0.675000000    -4.784000000
H     1.490000000    -0.193000000    -5.295000000
O     2.221000000    -2.396000000    -2.269000000
H     1.473000000    -2.312000000    -2.860000000
H     2.954000000    -2.621000000    -2.841000000
O    -4.289000000    -3.490000000     2.798000000
H    -5.200000000    -3.310000000     3.028000000
H    -4.213000000    -3.212000000     1.885000000
O    -2.013000000     3.509000000    -3.063000000
H    -1.503000000     3.658000000    -2.267000000
H    -1.564000000     4.022000000    -3.735000000
O     1.916000000     6.260000000    -4.684000000
H     2.323000000     6.323000000    -5.548000000
H     2.551000000     5.778000000    -4.155000000
O     3.259000000     3.477000000     3.908000000
H     3.234000000     2.550000000     3.670000000
H     2.712000000     3.538000000     4.691000000
O    -3.498000000     1.100000000    -3.770000000
H    -2.950000000     1.837000000    -3.499000000
H    -3.661000000     0.613000000    -2.962000000
O     0.537000000    -4.297000000     3.106000000
H     0.358000000    -5.237000000     3.155000000
H    -0.091000000    -3.903000000     3.711000000
O    -1.680000000     3.612000000     3.267000000
H    -1.041000000     3.279000000     2.637000000
H    -1.428000000     3.211000000     4.099000000
O     6.746000000     1.912000000    -3.075000000
H     6.226000000     2.711000000    -2.989000000
H     6.622000000     1.455000000    -2.243000000
O     2.800000000    -2.730000000     2.863000000
H     2.713000000    -2.509000000     3.790000000
H     1.982000000    -3.177000000     2.645000000
O     3.713000000     2.844000000    -5.842000000
H     3.232000000     3.501000000    -6.346000000
H     3.598000000     3.110000000    -4.930000000
O    -0.252000000    -4.965000000     0.142000000
H     0.201000000    -5.729000000    -0.215000000
H     0.265000000    -4.718000000     0.909000000
O    -0.829000000     1.887000000     5.352000000
H    -1.691000000     1.512000000     5.170000000
H    -0.536000000     1.440000000     6.146000000
O    -2.844000000    -1.357000000    -5.090000000
H    -2.821000000    -1.968000000    -4.354000000
H    -2.555000000    -0.523000000    -4.719000000
O     3.593000000     4.958000000     1.526000000
H     3.277000000     4.487000000     2.297000000
H     4.361000000     4.462000000     1.240000000
O    -3.585000000    -1.612000000     4.910000000
H    -4.054000000    -2.001000000     5.648000000
H    -3.778000000    -2.189000000     4.172000000
O     4.903000000    -2.287000000    -3.623000000
H     5.196000000    -2.881000000    -4.313000000
H     4.489000000    -1.562000000    -4.091000000
O     0.085000000    -2.639000000    -4.313000000
H     0.775000000    -2.975000000    -4.884000000
H    -0.125000000    -1.777000000    -4.672000000
O     2.641000000     0.461000000    -7.494000000
H     3.396000000     0.104000000    -7.962000000
H     2.959000000     1.280000000    -7.115000000
O    -3.230000000    -6.326000000     1.450000000
H    -3.574000000    -7.169000000     1.746000000
H    -2.395000000    -6.234000000     1.907000000
O    -1.069000000     4.805000000    -6.217000000
H    -0.582000000     4.256000000    -5.603000000
H    -0.533000000     4.811000000    -7.011000000
O    -5.572000000    -2.214000000    -3.357000000
H    -5.427000000    -2.553000000    -2.474000000
H    -4.829000000    -2.541000000    -3.865000000
O    -6.146000000    -1.246000000     0.439000000
H    -6.019000000    -2.163000000     0.193000000
H    -7.057000000    -1.061000000     0.212000000
O    -4.753000000     3.570000000     2.630000000
H    -3.822000000     3.359000000     2.699000000
H    -5.171000000     2.739000000     2.405000000
O    -2.445000000     2.021000000    -0.289000000
H    -1.941000000     2.827000000    -0.404000000
H    -1.865000000     1.328000000    -0.606000000
O     0.807000000    -4.541000000     6.528000000
H     0.026000000    -4.024000000     6.328000000
H     1.332000000    -4.501000000     5.728000000
O     6.183000000    -1.176000000    -0.119000000
H     5.349000000    -1.594000000     0.093000000
H     6.545000000    -1.710000000    -0.827000000
