161
-3019.55227
C     0.018000000     1.314000000    -0.702000000
H    -0.010000000     2.329000000    -1.089000000
C    -0.320000000     1.100000000     0.658000000
H    -0.510000000     1.986000000     1.258000000
C    -0.229000000    -0.199000000     1.199000000
C    -0.416000000    -0.428000000     2.659000000
H    -0.243000000    -1.475000000     2.919000000
H     0.247000000     0.249000000     3.202000000
H    -1.446000000    -0.285000000     2.992000000
C     0.108000000    -1.270000000     0.370000000
H    -0.040000000    -2.269000000     0.771000000
C     0.404000000    -1.070000000    -0.980000000
H     0.554000000    -1.900000000    -1.665000000
C     0.291000000     0.243000000    -1.486000000
C     0.487000000     0.459000000    -2.978000000
O     0.631000000    -0.437000000    -3.775000000
O     0.469000000     1.647000000    -3.355000000
O    -2.423000000     2.597000000     6.026000000
H    -2.513000000     1.645000000     6.070000000
H    -2.389000000     2.791000000     5.089000000
O     3.779000000    -1.324000000    -0.953000000
H     4.439000000    -1.995000000    -1.126000000
H     3.590000000    -1.408000000    -0.018000000
O    -4.210000000    -0.777000000     3.625000000
H    -3.422000000    -1.308000000     3.508000000
H    -4.123000000    -0.408000000     4.504000000
O     3.416000000    -1.161000000    -3.709000000
H     3.406000000    -1.755000000    -2.958000000
H     2.587000000    -0.686000000    -3.648000000
O     2.800000000     0.912000000     2.058000000
H     2.469000000     1.544000000     2.696000000
H     2.072000000     0.782000000     1.450000000
O     4.438000000    -2.665000000    -6.090000000
H     4.018000000    -2.257000000    -5.333000000
H     5.322000000    -2.875000000    -5.790000000
O     1.887000000     3.572000000     2.962000000
H     2.354000000     4.031000000     2.264000000
H     1.162000000     4.155000000     3.189000000
O    -2.230000000    -4.026000000    -6.403000000
H    -1.911000000    -3.658000000    -7.227000000
H    -1.677000000    -3.627000000    -5.732000000
O    -1.949000000     4.858000000     0.763000000
H    -2.317000000     4.645000000    -0.095000000
H    -1.011000000     4.960000000     0.602000000
O     0.029000000    -1.997000000     6.502000000
H    -0.031000000    -2.952000000     6.530000000
H     0.963000000    -1.812000000     6.594000000
O     2.670000000    -6.206000000    -2.262000000
H     3.029000000    -5.488000000    -1.741000000
H     2.682000000    -5.878000000    -3.161000000
O    -2.585000000     3.841000000     3.139000000
H    -2.362000000     4.072000000     2.237000000
H    -3.474000000     3.489000000     3.084000000
O     2.645000000     2.990000000    -3.460000000
H     2.362000000     3.762000000    -3.950000000
H     1.831000000     2.541000000    -3.229000000
O    -2.433000000    -2.605000000     5.369000000
H    -3.018000000    -2.724000000     6.117000000
H    -1.590000000    -2.375000000     5.759000000
O     2.788000000    -1.980000000     6.878000000
H     3.549000000    -1.919000000     7.455000000
H     2.869000000    -1.226000000     6.294000000
O    -0.706000000     3.914000000    -4.565000000
H    -0.425000000     3.050000000    -4.265000000
H     0.108000000     4.398000000    -4.700000000
O     0.409000000    -3.218000000    -5.194000000
H    -0.126000000    -2.798000000    -4.520000000
H     1.259000000    -2.782000000    -5.133000000
O    -1.888000000    -0.486000000     7.831000000
H    -1.166000000    -0.950000000     7.407000000
H    -1.544000000    -0.243000000     8.691000000
O     2.033000000     1.605000000    -5.817000000
H     1.663000000     1.070000000    -5.115000000
H     2.600000000     2.232000000    -5.368000000
O    -2.508000000    -5.139000000     4.079000000
H    -2.358000000    -5.704000000     4.837000000
H    -2.291000000    -4.260000000     4.388000000
O    -1.323000000    -2.155000000    -3.198000000
H    -2.135000000    -1.656000000    -3.116000000
H    -0.651000000    -1.493000000    -3.366000000
O     1.693000000     5.332000000    -4.723000000
H     1.765000000     5.959000000    -5.442000000
H     1.787000000     5.863000000    -3.932000000
O    -3.988000000    -0.062000000     6.252000000
H    -3.104000000    -0.253000000     6.566000000
H    -4.473000000    -0.875000000     6.390000000
O     3.872000000    -0.184000000     4.857000000
H     4.723000000    -0.622000000     4.839000000
H     4.050000000     0.701000000     4.539000000
O     0.302000000    -7.076000000    -1.374000000
H     1.124000000    -6.825000000    -1.795000000
H    -0.210000000    -6.268000000    -1.346000000
O     5.117000000     2.278000000     2.586000000
H     4.457000000     1.672000000     2.249000000
H     5.468000000     2.709000000     1.806000000
O     0.500000000     5.347000000    -0.117000000
H     1.389000000     5.120000000    -0.388000000
H     0.476000000     6.304000000    -0.154000000
O    -2.166000000     2.139000000    -7.362000000
H    -1.945000000     1.259000000    -7.058000000
H    -1.871000000     2.717000000    -6.659000000
O     3.284000000     2.650000000     4.982000000
H     2.838000000     3.186000000     4.326000000
H     3.051000000     3.052000000     5.819000000
O     4.731000000     1.153000000    -2.638000000
H     3.912000000     1.642000000    -2.720000000
H     4.480000000     0.335000000    -2.209000000
O     2.213000000    -4.856000000     4.418000000
H     1.628000000    -4.747000000     5.168000000
H     2.331000000    -3.970000000     4.076000000
O    -1.942000000    -3.924000000     0.182000000
H    -1.275000000    -4.129000000    -0.473000000
H    -2.760000000    -4.240000000    -0.202000000
O    -0.636000000    -0.110000000    -6.252000000
H    -0.142000000     0.182000000    -5.486000000
H     0.029000000    -0.441000000    -6.855000000
O    -0.864000000    -4.758000000    -2.216000000
H    -1.528000000    -5.262000000    -2.686000000
H    -0.949000000    -3.869000000    -2.559000000
O    -3.285000000     2.020000000    -2.022000000
H    -3.245000000     2.643000000    -2.748000000
H    -3.127000000     2.551000000    -1.242000000
O     4.774000000     3.737000000    -5.006000000
H     5.603000000     3.261000000    -4.970000000
H     4.256000000     3.370000000    -4.289000000
O    -0.172000000     5.054000000     3.649000000
H    -0.570000000     5.854000000     3.305000000
H    -0.818000000     4.370000000     3.472000000
O     3.219000000     4.670000000    -0.580000000
H     3.943000000     4.101000000    -0.837000000
H     3.401000000     4.892000000     0.333000000
O     2.672000000    -2.196000000     3.527000000
H     3.013000000    -1.513000000     4.105000000
H     2.335000000    -1.720000000     2.767000000
O    -2.425000000     5.727000000    -5.624000000
H    -3.231000000     5.216000000    -5.709000000
H    -1.779000000     5.101000000    -5.299000000
O    -3.373000000    -0.393000000    -3.100000000
H    -3.147000000     0.407000000    -2.625000000
H    -4.239000000    -0.216000000    -3.468000000
O    -1.063000000    -6.167000000     2.058000000
H    -1.352000000    -5.413000000     1.544000000
H    -1.423000000    -6.014000000     2.931000000
O    -6.791000000    -0.390000000     2.472000000
H    -5.942000000    -0.480000000     2.904000000
H    -6.787000000    -1.064000000     1.792000000
O    -4.268000000    -2.193000000     0.519000000
H    -3.401000000    -1.805000000     0.397000000
H    -4.299000000    -2.911000000    -0.112000000
O    -3.327000000    -0.992000000    -7.009000000
H    -2.489000000    -0.962000000    -6.549000000
H    -3.131000000    -1.432000000    -7.836000000
O    -2.447000000     4.884000000    -2.485000000
H    -2.135000000     5.782000000    -2.599000000
H    -1.902000000     4.365000000    -3.077000000
O    -4.590000000     2.962000000     0.290000000
H    -5.452000000     2.600000000     0.495000000
H    -3.999000000     2.210000000     0.332000000
O     4.055000000    -4.568000000    -0.518000000
H     4.803000000    -5.117000000    -0.283000000
H     4.144000000    -3.791000000     0.034000000
