161
-3060.67233
C    -0.469000000    -0.418000000    -1.398000000
H    -0.767000000    -0.542000000    -2.436000000
C    -0.481000000     0.893000000    -0.831000000
H    -0.721000000     1.712000000    -1.504000000
C    -0.020000000     1.150000000     0.456000000
C     0.190000000     2.544000000     1.024000000
H     0.076000000     2.609000000     2.108000000
H     1.247000000     2.809000000     0.951000000
H    -0.321000000     3.363000000     0.513000000
C     0.220000000     0.086000000     1.217000000
H     0.503000000     0.309000000     2.242000000
C     0.141000000    -1.213000000     0.742000000
H     0.456000000    -2.036000000     1.378000000
C    -0.081000000    -1.512000000    -0.617000000
C    -0.035000000    -2.891000000    -1.156000000
O     0.331000000    -3.796000000    -0.366000000
O    -0.270000000    -3.072000000    -2.328000000
O     5.063000000    -4.204000000     0.345000000
H     4.283000000    -3.950000000    -0.148000000
H     4.929000000    -5.131000000     0.543000000
O    -1.739000000     5.690000000    -0.136000000
H    -1.463000000     5.706000000     0.780000000
H    -2.628000000     6.042000000    -0.125000000
O     2.882000000    -4.345000000    -1.156000000
H     2.936000000    -5.259000000    -1.437000000
H     2.025000000    -4.275000000    -0.735000000
O    -2.238000000    -4.560000000     0.762000000
H    -2.588000000    -3.672000000     0.683000000
H    -1.332000000    -4.487000000     0.463000000
O    -4.176000000     3.300000000    -0.504000000
H    -3.930000000     4.183000000    -0.781000000
H    -4.321000000     3.377000000     0.439000000
O     2.673000000     3.634000000     4.585000000
H     2.395000000     4.496000000     4.893000000
H     2.866000000     3.762000000     3.656000000
O    -2.546000000    -4.418000000    -2.662000000
H    -1.907000000    -3.802000000    -3.020000000
H    -3.035000000    -3.907000000    -2.016000000
O     0.817000000     5.736000000     2.603000000
H     0.073000000     5.162000000     2.782000000
H     1.209000000     5.895000000     3.462000000
O    -2.048000000    -3.296000000     3.725000000
H    -1.895000000    -3.346000000     2.782000000
H    -1.798000000    -2.403000000     3.962000000
O     3.076000000     2.896000000    -3.159000000
H     3.891000000     3.267000000    -3.497000000
H     3.297000000     1.991000000    -2.941000000
O     0.559000000    -0.385000000     5.375000000
H     0.384000000     0.556000000     5.394000000
H    -0.218000000    -0.764000000     4.963000000
O    -3.440000000    -5.829000000    -5.402000000
H    -3.338000000    -5.160000000    -4.725000000
H    -3.021000000    -6.607000000    -5.035000000
O    -2.607000000    -1.645000000     1.338000000
H    -3.213000000    -0.958000000     1.615000000
H    -2.019000000    -1.211000000     0.720000000
O     0.063000000     7.867000000     1.025000000
H     0.364000000     7.199000000     1.641000000
H     0.638000000     7.770000000     0.266000000
O    -4.533000000     3.356000000     2.360000000
H    -3.917000000     4.082000000     2.454000000
H    -5.383000000     3.732000000     2.589000000
O     0.592000000     3.452000000    -3.939000000
H     1.519000000     3.219000000    -3.886000000
H     0.483000000     4.146000000    -3.288000000
O    -4.241000000     3.274000000    -3.573000000
H    -4.057000000     3.082000000    -2.653000000
H    -3.425000000     3.646000000    -3.907000000
O    -0.682000000    -6.063000000    -1.365000000
H    -0.229000000    -5.240000000    -1.179000000
H    -1.504000000    -5.796000000    -1.776000000
O     2.727000000     3.778000000    -0.640000000
H     2.772000000     3.574000000    -1.574000000
H     1.791000000     3.773000000    -0.439000000
O    -0.837000000    -6.977000000    -5.366000000
H    -0.554000000    -6.098000000    -5.115000000
H    -0.168000000    -7.278000000    -5.980000000
O    -1.714000000     4.661000000     2.853000000
H    -2.151000000     4.939000000     3.658000000
H    -1.539000000     3.729000000     2.985000000
O     3.653000000     0.430000000    -2.370000000
H     3.374000000     0.447000000    -1.454000000
H     3.433000000    -0.451000000    -2.671000000
O     0.105000000    -4.649000000    -4.505000000
H     1.019000000    -4.660000000    -4.790000000
H     0.146000000    -4.400000000    -3.581000000
O     2.807000000    -7.019000000    -1.852000000
H     2.314000000    -7.192000000    -2.654000000
H     3.674000000    -7.388000000    -2.020000000
O     3.361000000    -4.239000000     3.361000000
H     2.511000000    -4.031000000     2.972000000
H     3.946000000    -3.553000000     3.038000000
O     0.043000000     2.350000000     5.728000000
H     0.751000000     2.671000000     5.170000000
H     0.381000000     2.440000000     6.619000000
O     0.386000000     5.340000000    -1.990000000
H    -0.256000000     5.406000000    -1.283000000
H     0.589000000     6.248000000    -2.214000000
O    -4.050000000     0.621000000     1.640000000
H    -4.969000000     0.414000000     1.469000000
H    -4.069000000     1.501000000     2.016000000
O    -2.033000000    -1.709000000    -4.253000000
H    -2.907000000    -1.828000000    -3.881000000
H    -1.441000000    -2.071000000    -3.594000000
O     4.477000000     0.914000000     2.942000000
H     5.382000000     1.129000000     3.167000000
H     4.095000000     0.596000000     3.760000000
O     2.808000000    -2.154000000    -2.998000000
H     2.850000000    -2.864000000    -2.358000000
H     1.880000000    -2.091000000    -3.225000000
O     1.003000000    -4.795000000     2.029000000
H     0.680000000    -4.299000000     1.277000000
H     1.187000000    -5.667000000     1.679000000
O    -4.017000000    -2.120000000    -1.903000000
H    -4.179000000    -1.178000000    -1.839000000
H    -4.841000000    -2.523000000    -1.631000000
O     4.569000000     3.525000000     1.682000000
H     4.669000000     2.575000000     1.749000000
H     3.814000000     3.646000000     1.106000000
O     3.293000000    -0.533000000     0.022000000
H     2.479000000    -1.034000000     0.063000000
H     3.538000000    -0.398000000     0.937000000
O    -1.734000000    -3.411000000    -6.540000000
H    -1.778000000    -3.131000000    -5.625000000
H    -1.282000000    -4.254000000    -6.511000000
O     0.697000000    -1.743000000    -6.037000000
H     0.846000000    -0.826000000    -5.809000000
H    -0.256000000    -1.837000000    -6.039000000
O    -5.171000000     0.610000000    -1.640000000
H    -6.095000000     0.850000000    -1.708000000
H    -4.802000000     1.247000000    -1.028000000
O     4.905000000    -2.357000000     2.391000000
H     5.182000000    -2.873000000     1.634000000
H     5.688000000    -1.871000000     2.650000000
O    -1.953000000     3.112000000    -5.317000000
H    -1.118000000     3.419000000    -4.963000000
H    -1.805000000     2.186000000    -5.512000000
O    -1.898000000    -6.638000000     2.723000000
H    -2.018000000    -5.869000000     2.167000000
H    -1.090000000    -6.461000000     3.206000000
O    -0.649000000    -8.872000000    -0.397000000
H    -0.455000000    -7.944000000    -0.532000000
H    -1.497000000    -8.877000000     0.046000000
O     1.571000000     1.529000000    -6.221000000
H     1.737000000     2.299000000    -6.764000000
H     1.162000000     1.878000000    -5.429000000
O    -1.843000000    -0.475000000     4.043000000
H    -2.259000000     0.268000000     4.480000000
H    -1.792000000    -0.214000000     3.123000000
O     1.646000000    -7.411000000     1.149000000
H     1.809000000    -7.446000000     0.206000000
H     1.467000000    -8.319000000     1.395000000
O    -1.306000000     0.518000000    -5.724000000
H    -1.275000000     0.035000000    -6.550000000
H    -1.905000000     0.013000000    -5.174000000
O     3.184000000     0.031000000     5.124000000
H     2.955000000     0.625000000     5.839000000
H     2.394000000    -0.491000000     4.984000000
O    -2.807000000     1.926000000     4.800000000
H    -3.632000000     2.390000000     4.943000000
H    -2.308000000     2.073000000     5.604000000
