161
-3008.91005
C     0.039000000    -0.012000000    -1.444000000
H     0.100000000     0.109000000    -2.523000000
C     0.209000000     1.055000000    -0.650000000
H     0.255000000     2.078000000    -1.015000000
C     0.187000000     0.903000000     0.750000000
C     0.087000000     2.241000000     1.497000000
H    -0.856000000     2.549000000     1.953000000
H     0.881000000     2.289000000     2.246000000
H     0.302000000     3.021000000     0.764000000
C     0.062000000    -0.298000000     1.371000000
H    -0.119000000    -0.376000000     2.440000000
C    -0.096000000    -1.447000000     0.538000000
H    -0.275000000    -2.413000000     1.004000000
C    -0.064000000    -1.277000000    -0.852000000
C    -0.181000000    -2.486000000    -1.793000000
O    -0.324000000    -3.620000000    -1.293000000
O    -0.201000000    -2.313000000    -2.997000000
O     4.691000000    -3.278000000     0.015000000
H     4.132000000    -3.427000000    -0.748000000
H     4.313000000    -3.827000000     0.701000000
O    -1.359000000     5.524000000     1.125000000
H    -1.765000000     5.087000000     1.873000000
H    -1.657000000     6.432000000     1.186000000
O     3.489000000    -4.612000000    -2.253000000
H     3.042000000    -5.321000000    -1.790000000
H     2.812000000    -4.225000000    -2.809000000
O    -3.382000000    -1.549000000     0.357000000
H    -3.798000000    -0.726000000     0.613000000
H    -2.449000000    -1.342000000     0.313000000
O     0.114000000    -0.241000000     7.062000000
H    -0.218000000     0.134000000     6.246000000
H     0.616000000     0.467000000     7.464000000
O    -2.399000000     2.617000000    -0.430000000
H    -1.657000000     2.081000000    -0.149000000
H    -2.163000000     3.508000000    -0.170000000
O    -1.218000000    -5.312000000    -3.332000000
H    -0.574000000    -5.780000000    -2.800000000
H    -1.117000000    -4.395000000    -3.079000000
O     0.991000000     5.765000000     3.261000000
H     1.172000000     4.938000000     2.814000000
H     0.779000000     6.376000000     2.556000000
O    -2.716000000    -1.646000000     4.400000000
H    -2.928000000    -0.790000000     4.029000000
H    -2.676000000    -1.494000000     5.345000000
O     2.803000000     2.759000000    -2.818000000
H     2.859000000     2.006000000    -2.230000000
H     3.340000000     2.515000000    -3.572000000
O    -0.539000000     1.264000000     4.779000000
H    -0.223000000     2.129000000     5.040000000
H    -1.435000000     1.417000000     4.477000000
O     1.445000000    -5.982000000    -6.067000000
H     0.773000000    -5.639000000    -6.656000000
H     1.518000000    -5.322000000    -5.377000000
O    -4.318000000     1.273000000     1.168000000
H    -4.979000000     1.965000000     1.147000000
H    -3.670000000     1.541000000     0.516000000
O     0.972000000     4.645000000    -2.987000000
H     1.820000000     4.201000000    -3.024000000
H     0.863000000     4.875000000    -2.064000000
O    -3.392000000     2.608000000    -3.121000000
H    -2.865000000     2.514000000    -2.327000000
H    -3.716000000     1.725000000    -3.298000000
O    -2.005000000    -5.414000000    -0.592000000
H    -1.342000000    -4.729000000    -0.671000000
H    -2.609000000    -5.087000000     0.076000000
O     4.077000000     5.354000000     0.333000000
H     3.960000000     4.406000000     0.276000000
H     4.020000000     5.658000000    -0.572000000
O    -2.733000000    -7.341000000    -3.861000000
H    -2.202000000    -6.563000000    -3.685000000
H    -2.290000000    -8.045000000    -3.388000000
O     3.464000000    -4.907000000     1.677000000
H     2.573000000    -4.690000000     1.404000000
H     3.355000000    -5.352000000     2.518000000
O    -2.664000000     4.889000000     3.469000000
H    -3.411000000     5.077000000     4.037000000
H    -1.979000000     5.488000000     3.767000000
O    -3.984000000    -4.056000000     0.966000000
H    -4.929000000    -4.133000000     0.833000000
H    -3.742000000    -3.256000000     0.499000000
O     2.520000000    -2.774000000     6.051000000
H     1.732000000    -2.838000000     5.511000000
H     3.235000000    -3.009000000     5.460000000
O     4.067000000     0.333000000    -1.797000000
H     3.763000000     0.206000000    -0.899000000
H     4.071000000    -0.547000000    -2.175000000
O     1.635000000    -2.835000000    -6.488000000
H     1.572000000    -1.986000000    -6.925000000
H     2.061000000    -3.403000000    -7.129000000
O    -4.014000000    -4.078000000     3.547000000
H    -3.944000000    -4.138000000     2.594000000
H    -3.590000000    -3.248000000     3.766000000
O     1.525000000    -3.903000000    -4.030000000
H     1.656000000    -3.402000000    -4.835000000
H     0.984000000    -3.336000000    -3.480000000
O    -0.244000000    -2.885000000     3.814000000
H    -0.688000000    -3.614000000     3.380000000
H    -0.874000000    -2.572000000     4.463000000
O     0.813000000     3.907000000     5.698000000
H     0.443000000     4.507000000     5.051000000
H     0.695000000     4.355000000     6.536000000
O     3.270000000     0.843000000    -5.343000000
H     3.571000000    -0.047000000    -5.524000000
H     3.851000000     1.402000000    -5.858000000
O     0.731000000     6.014000000    -0.651000000
H     0.273000000     5.710000000     0.132000000
H     0.373000000     6.886000000    -0.816000000
O    -1.201000000    -0.904000000    -4.917000000
H    -1.857000000    -0.271000000    -4.625000000
H    -0.966000000    -1.388000000    -4.125000000
O     4.193000000     3.325000000     3.400000000
H     3.438000000     2.790000000     3.645000000
H     4.742000000     3.339000000     4.185000000
O     0.944000000    -5.176000000     0.431000000
H     0.483000000    -4.726000000    -0.276000000
H     1.212000000    -6.012000000     0.047000000
O    -4.393000000    -2.829000000    -4.602000000
H    -3.473000000    -3.031000000    -4.773000000
H    -4.489000000    -2.935000000    -3.656000000
O     4.468000000    -1.689000000    -5.642000000
H     5.311000000    -1.557000000    -5.208000000
H     3.913000000    -2.089000000    -4.972000000
O     4.080000000     2.752000000     0.713000000
H     3.683000000     1.896000000     0.554000000
H     4.181000000     2.797000000     1.663000000
O    -2.142000000    -3.484000000    -6.386000000
H    -1.592000000    -4.267000000    -6.379000000
H    -1.569000000    -2.786000000    -6.069000000
O    -0.652000000    -0.922000000    -7.835000000
H    -1.221000000    -0.155000000    -7.764000000
H    -0.260000000    -1.010000000    -6.966000000
O    -5.231000000    -2.125000000    -1.969000000
H    -5.748000000    -1.326000000    -1.866000000
H    -4.535000000    -2.045000000    -1.317000000
O     3.048000000     0.297000000     1.106000000
H     2.223000000    -0.102000000     1.383000000
H     3.717000000    -0.343000000     1.349000000
O     0.027000000     3.020000000    -5.273000000
H     0.646000000     2.348000000    -4.988000000
H    -0.097000000     3.573000000    -4.501000000
O    -0.743000000    -5.161000000     2.548000000
H    -0.071000000    -5.039000000     1.877000000
H    -0.863000000    -6.109000000     2.598000000
O     5.019000000     1.987000000     5.987000000
H     4.134000000     1.969000000     5.624000000
H     5.001000000     1.343000000     6.695000000
O    -1.727000000    -7.781000000     0.455000000
H    -1.742000000    -7.100000000    -0.218000000
H    -2.545000000    -7.659000000     0.937000000
O    -2.855000000     1.818000000     3.442000000
H    -3.111000000     2.739000000     3.385000000
H    -3.447000000     1.367000000     2.840000000
O     2.231000000    -7.219000000    -0.681000000
H     2.163000000    -7.013000000    -1.613000000
H     1.953000000    -8.133000000    -0.617000000
O     2.437000000     1.852000000     4.935000000
H     2.137000000     2.650000000     5.371000000
H     2.071000000     1.141000000     5.460000000
O    -3.431000000     3.308000000     6.199000000
H    -4.022000000     3.870000000     5.699000000
H    -3.271000000     2.558000000     5.625000000
