161
-3032.59234
C     0.435000000    -1.350000000     0.418000000
H     0.882000000    -2.321000000     0.615000000
C     1.029000000    -0.155000000     0.832000000
H     1.938000000    -0.151000000     1.429000000
C     0.469000000     1.042000000     0.502000000
C     1.045000000     2.346000000     0.844000000
H     1.712000000     2.634000000     0.029000000
H     0.253000000     3.065000000     1.062000000
H     1.660000000     2.329000000     1.747000000
C    -0.659000000     1.045000000    -0.355000000
H    -1.066000000     2.026000000    -0.585000000
C    -1.167000000    -0.110000000    -0.866000000
H    -1.941000000    -0.060000000    -1.628000000
C    -0.683000000    -1.359000000    -0.432000000
C    -1.147000000    -2.655000000    -1.037000000
O    -2.215000000    -2.653000000    -1.683000000
O    -0.548000000    -3.665000000    -0.899000000
O    -0.271000000    -6.892000000     3.441000000
H    -1.066000000    -6.940000000     3.972000000
H    -0.316000000    -6.034000000     3.019000000
O     5.521000000     5.485000000    -0.402000000
H     5.585000000     5.794000000    -1.306000000
H     5.508000000     4.531000000    -0.476000000
O     4.546000000     5.640000000     4.132000000
H     3.656000000     5.318000000     4.278000000
H     4.512000000     6.056000000     3.270000000
O    -5.037000000    -6.367000000    -3.991000000
H    -4.758000000    -7.141000000    -3.501000000
H    -4.441000000    -5.675000000    -3.705000000
O    -3.556000000    -0.634000000    -3.418000000
H    -2.871000000    -0.390000000    -4.040000000
H    -3.137000000    -1.268000000    -2.836000000
O     2.106000000     5.418000000     1.882000000
H     2.265000000     5.116000000     2.776000000
H     1.846000000     4.630000000     1.405000000
O     2.442000000    -6.958000000     2.161000000
H     1.614000000    -7.064000000     2.629000000
H     2.197000000    -6.543000000     1.333000000
O    -4.777000000     4.183000000    -1.446000000
H    -3.968000000     4.246000000    -1.954000000
H    -4.751000000     4.940000000    -0.859000000
O     0.606000000     0.363000000     5.119000000
H     0.081000000    -0.338000000     4.734000000
H     1.347000000     0.464000000     4.521000000
O    -5.227000000     1.387000000    -0.854000000
H    -4.998000000     2.274000000    -1.131000000
H    -4.587000000     0.826000000    -1.293000000
O    -0.048000000     7.716000000     0.572000000
H     0.639000000     7.062000000     0.442000000
H     0.177000000     8.423000000    -0.033000000
O    -0.173000000     1.803000000    -5.109000000
H     0.034000000     1.651000000    -4.187000000
H    -0.828000000     2.500000000    -5.096000000
O     0.069000000     4.868000000    -3.233000000
H     0.776000000     5.094000000    -2.629000000
H     0.391000000     5.142000000    -4.092000000
O    -0.409000000    -3.187000000    -5.790000000
H    -0.878000000    -3.596000000    -6.518000000
H    -0.756000000    -3.620000000    -5.010000000
O     2.317000000    -6.170000000    -0.589000000
H     3.254000000    -6.284000000    -0.432000000
H     2.269000000    -5.558000000    -1.323000000
O     1.815000000    -3.444000000     3.094000000
H     1.015000000    -3.915000000     2.861000000
H     2.297000000    -3.368000000     2.271000000
O    -6.732000000    -3.991000000    -1.616000000
H    -5.823000000    -3.908000000    -1.330000000
H    -6.686000000    -4.524000000    -2.410000000
O    -5.823000000     0.559000000    -4.273000000
H    -4.980000000     0.124000000    -4.151000000
H    -5.807000000     0.863000000    -5.181000000
O     4.288000000     6.826000000     1.635000000
H     3.409000000     6.447000000     1.658000000
H     4.646000000     6.549000000     0.791000000
O     2.050000000     6.218000000    -1.399000000
H     2.504000000     5.380000000    -1.302000000
H     2.737000000     6.833000000    -1.656000000
O    -5.294000000    -1.355000000     0.787000000
H    -4.987000000    -2.123000000     0.306000000
H    -4.519000000    -1.036000000     1.249000000
O    -1.922000000     5.018000000     2.555000000
H    -1.699000000     5.312000000     3.438000000
H    -1.083000000     4.774000000     2.164000000
O    -6.254000000    -2.101000000    -3.928000000
H    -5.954000000    -1.194000000    -3.983000000
H    -6.866000000    -2.106000000    -3.192000000
O    -2.333000000     4.278000000    -2.794000000
H    -2.641000000     4.247000000    -3.700000000
H    -1.383000000     4.374000000    -2.867000000
O     1.954000000     4.617000000     4.474000000
H     1.456000000     5.338000000     4.860000000
H     1.564000000     3.828000000     4.852000000
O     2.984000000    -1.562000000    -1.758000000
H     2.878000000    -2.508000000    -1.859000000
H     2.250000000    -1.297000000    -1.204000000
O    -1.975000000    -0.138000000    -5.845000000
H    -1.390000000     0.603000000    -5.683000000
H    -1.444000000    -0.757000000    -6.346000000
O     3.462000000     3.950000000    -1.897000000
H     3.963000000     4.064000000    -2.704000000
H     4.005000000     3.376000000    -1.357000000
O    -3.948000000    -3.758000000    -3.564000000
H    -3.525000000    -3.100000000    -3.013000000
H    -4.677000000    -3.294000000    -3.975000000
O     1.694000000    -3.871000000    -2.343000000
H     1.383000000    -3.534000000    -3.184000000
H     0.951000000    -3.761000000    -1.751000000
O     3.488000000    -3.081000000     1.058000000
H     4.090000000    -2.379000000     1.306000000
H     4.041000000    -3.728000000     0.621000000
O    -0.264000000    -1.760000000     3.970000000
H     0.273000000    -2.263000000     3.357000000
H    -0.410000000    -2.357000000     4.705000000
O    -0.263000000    -7.092000000    -3.853000000
H    -0.228000000    -7.208000000    -4.803000000
H    -0.581000000    -6.197000000    -3.733000000
O     3.520000000    -0.044000000     4.638000000
H     3.815000000     0.535000000     3.935000000
H     3.853000000    -0.907000000     4.393000000
O     1.316000000     1.731000000    -2.598000000
H     2.242000000     1.928000000    -2.745000000
H     1.064000000     2.300000000    -1.871000000
O    -4.235000000    -3.436000000    -0.200000000
H    -3.383000000    -3.304000000    -0.617000000
H    -4.024000000    -3.776000000     0.670000000
O     4.722000000    -2.288000000     4.031000000
H     4.403000000    -3.179000000     3.891000000
H     5.630000000    -2.308000000     3.729000000
O     1.726000000    -2.131000000    -4.678000000
H     1.109000000    -2.539000000    -5.285000000
H     1.565000000    -1.192000000    -4.768000000
O    -0.457000000    -6.371000000    -0.753000000
H     0.472000000    -6.521000000    -0.931000000
H    -0.564000000    -5.423000000    -0.823000000
O    -1.187000000    -4.570000000    -3.699000000
H    -1.051000000    -4.678000000    -2.758000000
H    -2.109000000    -4.325000000    -3.781000000
O    -4.493000000     0.976000000     1.890000000
H    -5.081000000     0.915000000     1.138000000
H    -4.218000000     1.893000000     1.905000000
O    -3.310000000    -3.675000000     2.285000000
H    -3.289000000    -4.079000000     3.153000000
H    -2.985000000    -2.786000000     2.427000000
O     5.584000000     2.678000000    -0.255000000
H     6.202000000     2.162000000    -0.772000000
H     5.808000000     2.481000000     0.654000000
O    -2.888000000    -1.054000000     2.678000000
H    -3.123000000    -0.159000000     2.433000000
H    -1.960000000    -1.005000000     2.905000000
O    -4.212000000     3.513000000     2.410000000
H    -4.291000000     3.333000000     3.347000000
H    -3.515000000     4.167000000     2.350000000
O    -0.613000000    -4.553000000     2.009000000
H    -1.519000000    -4.253000000     2.084000000
H    -0.395000000    -4.429000000     1.085000000
O     5.542000000     1.253000000     2.335000000
H     6.281000000     1.478000000     2.901000000
H     5.771000000     0.397000000     1.972000000
O    -2.430000000    -8.275000000    -0.474000000
H    -3.148000000    -7.897000000     0.034000000
H    -1.819000000    -7.549000000    -0.601000000
