161
-3085.79056
C     1.081000000    -0.007000000     0.972000000
H     1.766000000    -0.108000000     1.810000000
C    -0.050000000     0.785000000     1.088000000
H    -0.234000000     1.282000000     2.037000000
C    -1.025000000     0.746000000     0.092000000
C    -2.284000000     1.466000000     0.227000000
H    -3.093000000     0.744000000     0.352000000
H    -2.262000000     2.098000000     1.117000000
H    -2.396000000     2.014000000    -0.711000000
C    -0.824000000    -0.076000000    -1.047000000
H    -1.652000000    -0.206000000    -1.738000000
C     0.407000000    -0.833000000    -1.129000000
H     0.485000000    -1.542000000    -1.948000000
C     1.336000000    -0.799000000    -0.182000000
C     2.607000000    -1.576000000    -0.302000000
O     2.899000000    -2.075000000    -1.365000000
O     3.235000000    -1.911000000     0.727000000
O    -4.284000000     4.538000000    -4.107000000
H    -4.317000000     4.402000000    -3.160000000
H    -5.202000000     4.575000000    -4.376000000
O     2.311000000    -4.450000000    -2.278000000
H     1.899000000    -4.875000000    -1.526000000
H     2.555000000    -3.582000000    -1.959000000
O    -1.677000000     4.720000000    -1.503000000
H    -2.422000000     4.321000000    -1.054000000
H    -1.760000000     4.428000000    -2.411000000
O     2.442000000    -3.963000000    -5.349000000
H     2.402000000    -4.711000000    -5.944000000
H     2.115000000    -4.302000000    -4.516000000
O    -6.299000000     2.863000000    -0.216000000
H    -7.221000000     2.891000000    -0.472000000
H    -6.316000000     2.883000000     0.741000000
O     2.579000000     2.120000000    -0.526000000
H     2.504000000     2.393000000    -1.440000000
H     1.896000000     1.458000000    -0.416000000
O    -4.171000000    -0.619000000     2.686000000
H    -4.250000000    -0.467000000     1.744000000
H    -3.390000000    -1.165000000     2.775000000
O    -3.486000000     5.431000000     3.466000000
H    -3.312000000     4.527000000     3.729000000
H    -2.646000000     5.749000000     3.133000000
O     1.716000000     2.731000000    -3.055000000
H     1.670000000     3.598000000    -3.458000000
H     1.060000000     2.214000000    -3.523000000
O    -4.612000000    -0.909000000    -1.624000000
H    -4.424000000    -0.135000000    -2.153000000
H    -5.156000000    -0.583000000    -0.906000000
O    -2.678000000    -1.276000000    -5.873000000
H    -2.658000000    -1.961000000    -5.205000000
H    -2.327000000    -1.697000000    -6.658000000
O     3.309000000     3.374000000     4.284000000
H     3.932000000     4.022000000     4.613000000
H     3.851000000     2.732000000     3.826000000
O    -4.715000000     1.443000000     4.413000000
H    -4.499000000     0.918000000     3.642000000
H    -4.698000000     0.819000000     5.139000000
O    -0.983000000    -0.398000000     5.088000000
H    -0.858000000     0.339000000     5.685000000
H    -0.378000000    -1.069000000     5.406000000
O    -3.199000000     7.138000000    -1.232000000
H    -2.971000000     7.677000000    -1.989000000
H    -2.686000000     6.338000000    -1.344000000
O     6.980000000    -1.677000000    -3.798000000
H     6.226000000    -2.139000000    -4.165000000
H     6.600000000    -1.045000000    -3.187000000
O    -3.201000000    -3.217000000    -1.044000000
H    -3.003000000    -3.371000000    -0.120000000
H    -3.577000000    -2.337000000    -1.065000000
O     4.190000000    -4.346000000     1.613000000
H     3.766000000    -3.645000000     1.118000000
H     3.511000000    -4.663000000     2.209000000
O    -0.485000000     6.075000000     3.274000000
H    -0.181000000     5.793000000     2.411000000
H    -0.511000000     5.271000000     3.793000000
O     5.397000000    -3.475000000    -1.111000000
H     5.744000000    -2.790000000    -1.682000000
H     4.457000000    -3.300000000    -1.072000000
O     1.103000000     0.910000000    -5.639000000
H     1.596000000     1.731000000    -5.632000000
H     1.602000000     0.327000000    -5.068000000
O     0.663000000     3.483000000     4.491000000
H     1.588000000     3.730000000     4.495000000
H     0.542000000     3.019000000     3.663000000
O     1.083000000    -5.354000000    -0.024000000
H     1.490000000    -6.015000000     0.536000000
H     0.683000000    -4.736000000     0.588000000
O    -1.415000000    -1.522000000     2.589000000
H    -0.934000000    -1.052000000     1.907000000
H    -1.231000000    -1.034000000     3.391000000
O     0.599000000    -3.638000000     2.088000000
H     1.193000000    -2.935000000     2.352000000
H    -0.254000000    -3.373000000     2.433000000
O     1.951000000     0.577000000     4.400000000
H     1.523000000    -0.276000000     4.475000000
H     2.297000000     0.749000000     5.277000000
O    -6.842000000     2.279000000     2.409000000
H    -7.784000000     2.188000000     2.550000000
H    -6.447000000     1.967000000     3.223000000
O    -4.171000000     3.427000000    -1.678000000
H    -4.019000000     2.544000000    -2.015000000
H    -4.958000000     3.346000000    -1.139000000
O    -2.002000000     1.349000000    -4.719000000
H    -2.505000000     0.551000000    -4.883000000
H    -1.089000000     1.061000000    -4.716000000
O    -1.231000000     4.117000000    -4.064000000
H    -1.406000000     4.907000000    -4.575000000
H    -1.205000000     3.413000000    -4.712000000
O     2.467000000    -1.208000000    -3.939000000
H     2.608000000    -1.687000000    -3.122000000
H     1.961000000    -1.808000000    -4.486000000
O     2.554000000    -1.988000000     3.211000000
H     2.605000000    -1.739000000     2.288000000
H     3.316000000    -2.551000000     3.351000000
O     4.921000000     1.075000000    -4.955000000
H     5.043000000     0.506000000    -5.714000000
H     4.746000000     0.475000000    -4.231000000
O     6.751000000    -2.940000000     1.962000000
H     7.426000000    -3.226000000     1.345000000
H     6.024000000    -3.545000000     1.818000000
O     1.248000000    -1.779000000     6.174000000
H     1.144000000    -2.724000000     6.058000000
H     2.191000000    -1.632000000     6.102000000
O    -1.194000000    -3.630000000    -3.430000000
H    -1.204000000    -3.538000000    -2.477000000
H    -2.095000000    -3.858000000    -3.658000000
O    -6.452000000    -1.175000000     3.971000000
H    -6.931000000    -1.620000000     3.271000000
H    -5.559000000    -1.097000000     3.637000000
O    -2.093000000     3.291000000     4.060000000
H    -1.205000000     3.252000000     4.414000000
H    -2.519000000     2.502000000     4.396000000
O     5.562000000     1.713000000    -0.010000000
H     4.614000000     1.806000000     0.094000000
H     5.768000000     0.879000000     0.412000000
O     1.710000000     3.435000000     1.651000000
H     1.962000000     3.038000000     0.817000000
H     2.472000000     3.311000000     2.216000000
O    -6.061000000     0.262000000     0.352000000
H    -6.367000000     0.224000000     1.258000000
H    -6.023000000     1.197000000     0.151000000
O     5.235000000    -0.395000000    -2.197000000
H     5.153000000     0.430000000    -1.719000000
H     4.364000000    -0.789000000    -2.147000000
O     4.911000000    -3.115000000    -4.930000000
H     5.170000000    -4.028000000    -5.054000000
H     3.960000000    -3.118000000    -5.041000000
O     5.556000000    -0.632000000     1.225000000
H     6.169000000    -1.288000000     1.556000000
H     4.706000000    -1.071000000     1.238000000
O    -4.242000000     1.446000000    -3.280000000
H    -3.497000000     1.818000000    -3.753000000
H    -5.001000000     1.662000000    -3.822000000
O    -0.063000000     5.520000000     0.441000000
H     0.719000000     4.974000000     0.358000000
H    -0.670000000     5.170000000    -0.212000000
O     4.521000000     1.070000000     3.417000000
H     5.083000000     0.325000000     3.201000000
H     3.631000000     0.726000000     3.346000000
O    -0.392000000    -3.627000000    -6.169000000
H     0.555000000    -3.765000000    -6.147000000
H    -0.653000000    -3.614000000    -5.248000000
