161
-3018.31377
C     0.649000000    -1.308000000    -0.252000000
H     1.405000000    -2.078000000    -0.383000000
C     0.847000000    -0.393000000     0.730000000
H     1.771000000    -0.529000000     1.287000000
C     0.219000000     0.806000000     0.903000000
C     0.710000000     1.736000000     2.061000000
H     0.261000000     2.706000000     1.835000000
H     0.530000000     1.285000000     3.039000000
H     1.776000000     1.935000000     1.934000000
C    -0.932000000     1.003000000     0.156000000
H    -1.595000000     1.841000000     0.355000000
C    -1.210000000     0.152000000    -0.951000000
H    -2.048000000     0.421000000    -1.588000000
C    -0.391000000    -0.967000000    -1.206000000
C    -0.587000000    -1.924000000    -2.331000000
O    -1.568000000    -1.794000000    -3.115000000
O     0.158000000    -2.899000000    -2.481000000
O     2.715000000    -5.094000000     0.642000000
H     2.629000000    -4.902000000    -0.292000000
H     3.020000000    -4.273000000     1.029000000
O     6.618000000    -1.845000000     0.323000000
H     6.508000000    -0.962000000     0.675000000
H     5.837000000    -1.989000000    -0.211000000
O    -1.369000000     0.377000000    -4.386000000
H    -1.472000000    -0.422000000    -3.870000000
H    -0.935000000     0.089000000    -5.189000000
O     1.746000000     3.889000000     4.504000000
H     0.921000000     3.994000000     4.979000000
H     1.587000000     4.301000000     3.655000000
O    -5.279000000     0.037000000    -0.202000000
H    -4.483000000    -0.077000000     0.318000000
H    -5.402000000    -0.806000000    -0.638000000
O     1.127000000    -0.271000000     6.808000000
H     1.153000000    -1.162000000     6.458000000
H     1.832000000     0.187000000     6.351000000
O    -2.502000000    -7.186000000    -3.300000000
H    -3.200000000    -7.302000000    -2.655000000
H    -2.161000000    -6.308000000    -3.130000000
O     5.203000000     3.512000000     0.832000000
H     5.832000000     3.806000000     1.490000000
H     5.400000000     2.583000000     0.710000000
O     3.486000000     6.259000000     1.225000000
H     3.454000000     5.364000000     0.887000000
H     4.206000000     6.670000000     0.747000000
O     0.090000000     3.945000000     6.611000000
H    -0.663000000     3.712000000     7.154000000
H     0.462000000     4.717000000     7.037000000
O    -3.947000000    -2.309000000    -1.318000000
H    -3.382000000    -2.369000000    -2.089000000
H    -3.622000000    -2.992000000    -0.731000000
O    -2.599000000    -1.600000000     2.143000000
H    -2.509000000    -0.660000000     1.989000000
H    -1.741000000    -1.873000000     2.468000000
O    -3.687000000    -4.305000000    -6.982000000
H    -3.485000000    -3.787000000    -6.203000000
H    -3.361000000    -3.777000000    -7.712000000
O     4.772000000    -2.573000000    -1.670000000
H     3.903000000    -2.968000000    -1.597000000
H     5.187000000    -3.040000000    -2.395000000
O     2.789000000    -2.966000000     2.281000000
H     3.395000000    -3.440000000     2.850000000
H     3.183000000    -2.099000000     2.181000000
O    -3.876000000     0.737000000    -6.048000000
H    -4.152000000     1.152000000    -6.865000000
H    -2.920000000     0.731000000    -6.094000000
O    -3.559000000     1.797000000    -3.213000000
H    -2.778000000     1.277000000    -3.405000000
H    -4.196000000     1.526000000    -3.874000000
O     1.210000000    -2.850000000     5.378000000
H     2.144000000    -3.028000000     5.265000000
H     0.926000000    -3.474000000     6.046000000
O    -3.058000000    -4.058000000     0.483000000
H    -2.678000000    -4.778000000     0.987000000
H    -2.946000000    -3.289000000     1.042000000
O     0.587000000     5.341000000     2.149000000
H     0.697000000     6.282000000     2.285000000
H    -0.031000000     5.071000000     2.828000000
O    -0.886000000    -3.982000000    -5.032000000
H    -0.528000000    -3.802000000    -4.162000000
H    -1.617000000    -3.371000000    -5.121000000
O    -5.239000000    -1.051000000    -4.695000000
H    -5.837000000    -0.483000000    -4.210000000
H    -4.819000000    -0.470000000    -5.330000000
O     0.286000000     4.668000000    -0.646000000
H     0.998000000     4.219000000    -1.101000000
H     0.566000000     4.694000000     0.269000000
O    -1.698000000     4.971000000     3.961000000
H    -2.101000000     4.415000000     4.627000000
H    -2.282000000     5.726000000     3.892000000
O    -4.065000000     3.691000000     2.840000000
H    -4.270000000     4.619000000     2.954000000
H    -3.111000000     3.663000000     2.767000000
O     2.085000000     1.051000000    -1.830000000
H     2.792000000     0.412000000    -1.924000000
H     1.465000000     0.635000000    -1.232000000
O     0.044000000    -0.699000000    -6.533000000
H    -0.400000000    -1.183000000    -7.230000000
H     0.924000000    -0.540000000    -6.874000000
O     3.149000000     3.617000000    -1.102000000
H     2.874000000     2.748000000    -1.393000000
H     3.835000000     3.447000000    -0.456000000
O    -3.504000000     0.971000000     2.339000000
H    -4.160000000     1.662000000     2.246000000
H    -3.541000000     0.728000000     3.264000000
O     2.462000000    -4.329000000    -2.173000000
H     2.335000000    -4.995000000    -2.849000000
H     1.829000000    -3.644000000    -2.390000000
O     1.856000000    -1.353000000    -4.138000000
H     1.065000000    -1.165000000    -4.643000000
H     1.543000000    -1.832000000    -3.371000000
O     4.300000000    -0.666000000     2.070000000
H     4.669000000    -0.800000000     2.943000000
H     4.968000000    -0.166000000     1.601000000
O    -0.172000000    -2.488000000     3.135000000
H     0.284000000    -2.684000000     3.953000000
H     0.527000000    -2.384000000     2.490000000
O     4.599000000    -0.066000000    -2.405000000
H     4.476000000    -0.189000000    -3.346000000
H     5.098000000    -0.834000000    -2.126000000
O     2.810000000     1.154000000     5.400000000
H     2.637000000     2.001000000     4.989000000
H     3.550000000     0.796000000     4.909000000
O    -1.446000000     0.900000000     6.280000000
H    -1.388000000     1.339000000     5.431000000
H    -0.536000000     0.777000000     6.549000000
O     0.904000000     2.102000000    -4.402000000
H     0.081000000     1.616000000    -4.350000000
H     1.407000000     1.803000000    -3.644000000
O     4.947000000    -0.700000000     4.709000000
H     5.886000000    -0.518000000     4.661000000
H     4.829000000    -1.131000000     5.555000000
O     4.291000000    -0.556000000    -5.042000000
H     3.436000000    -0.929000000    -4.828000000
H     4.406000000    -0.742000000    -5.974000000
O    -1.531000000    -5.026000000    -1.948000000
H    -0.763000000    -4.454000000    -1.950000000
H    -2.181000000    -4.552000000    -1.429000000
O    -3.247000000    -2.656000000    -5.031000000
H    -4.110000000    -2.243000000    -5.006000000
H    -2.739000000    -2.189000000    -4.368000000
O    -1.483000000     7.028000000     0.130000000
H    -1.140000000     6.154000000    -0.057000000
H    -0.992000000     7.318000000     0.899000000
O    -3.129000000     4.350000000    -2.046000000
H    -2.357000000     4.304000000    -1.481000000
H    -3.119000000     3.526000000    -2.532000000
O    -6.104000000     2.312000000    -1.579000000
H    -5.221000000     2.579000000    -1.834000000
H    -5.999000000     1.420000000    -1.250000000
O     1.591000000    -7.835000000    -0.531000000
H     2.528000000    -7.968000000    -0.674000000
H     1.508000000    -6.900000000    -0.343000000
O     1.862000000    -3.432000000    -6.491000000
H     0.941000000    -3.501000000    -6.239000000
H     2.344000000    -3.748000000    -5.727000000
O     3.609000000    -4.916000000    -4.555000000
H     4.364000000    -4.332000000    -4.627000000
H     3.669000000    -5.482000000    -5.325000000
O     2.290000000    -6.614000000     2.608000000
H     2.997000000    -6.687000000     3.249000000
H     2.681000000    -6.143000000     1.872000000
