161
-3048.30699
C     1.251000000    -0.501000000    -0.439000000
H     2.241000000    -0.888000000    -0.668000000
C     0.887000000    -0.174000000     0.850000000
H     1.689000000    -0.216000000     1.583000000
C    -0.341000000     0.367000000     1.138000000
C    -0.562000000     0.634000000     2.592000000
H    -1.076000000    -0.231000000     3.018000000
H     0.338000000     0.881000000     3.159000000
H    -1.312000000     1.423000000     2.678000000
C    -1.188000000     0.630000000     0.080000000
H    -2.205000000     0.915000000     0.338000000
C    -0.885000000     0.239000000    -1.237000000
H    -1.579000000     0.437000000    -2.050000000
C     0.324000000    -0.479000000    -1.456000000
C     0.711000000    -0.872000000    -2.843000000
O     0.069000000    -0.512000000    -3.809000000
O     1.631000000    -1.648000000    -2.935000000
O     1.950000000    -0.566000000     5.000000000
H     2.516000000    -0.895000000     4.302000000
H     1.313000000    -1.267000000     5.142000000
O     0.824000000    -1.141000000    -8.611000000
H     0.382000000    -1.397000000    -7.802000000
H     0.124000000    -1.092000000    -9.262000000
O    -0.500000000    -1.730000000    -6.351000000
H    -1.401000000    -1.556000000    -6.622000000
H    -0.505000000    -1.595000000    -5.403000000
O    -0.252000000     3.236000000    -4.288000000
H    -0.907000000     2.565000000    -4.485000000
H    -0.183000000     3.230000000    -3.334000000
O    -0.862000000     3.843000000    -1.430000000
H    -1.431000000     3.147000000    -1.099000000
H    -0.795000000     4.462000000    -0.703000000
O    -4.908000000    -2.632000000    -3.001000000
H    -4.770000000    -3.579000000    -3.012000000
H    -5.787000000    -2.513000000    -3.361000000
O     5.398000000    -2.207000000     0.544000000
H     4.797000000    -2.237000000    -0.201000000
H     5.390000000    -3.098000000     0.893000000
O    -7.066000000     2.746000000     0.884000000
H    -6.255000000     2.519000000     1.340000000
H    -7.053000000     2.211000000     0.091000000
O    -2.935000000     2.747000000     6.525000000
H    -3.208000000     2.828000000     5.611000000
H    -3.471000000     3.387000000     6.993000000
O     5.718000000    -4.984000000    -1.941000000
H     5.096000000    -4.277000000    -1.768000000
H     5.572000000    -5.212000000    -2.859000000
O    -2.896000000    -0.908000000    -6.852000000
H    -3.695000000    -1.393000000    -6.646000000
H    -3.015000000    -0.624000000    -7.758000000
O    -4.649000000     1.051000000     5.034000000
H    -4.765000000     1.384000000     5.924000000
H    -5.199000000     0.268000000     4.998000000
O     1.854000000    -0.007000000     8.035000000
H     1.324000000     0.566000000     7.481000000
H     2.342000000    -0.552000000     7.418000000
O    -1.695000000     0.277000000     6.707000000
H    -2.239000000     1.065000000     6.715000000
H    -0.905000000     0.536000000     6.232000000
O     0.214000000    -2.444000000     2.185000000
H     0.033000000    -1.545000000     1.911000000
H     0.817000000    -2.780000000     1.522000000
O    -1.735000000     0.876000000    -5.124000000
H    -2.091000000     0.232000000    -5.736000000
H    -1.171000000     0.367000000    -4.542000000
O     0.549000000    -3.096000000     5.450000000
H    -0.219000000    -2.650000000     5.092000000
H     0.938000000    -3.544000000     4.698000000
O     1.911000000     4.269000000     2.416000000
H     1.636000000     4.326000000     3.331000000
H     2.271000000     3.386000000     2.328000000
O    -1.938000000    -2.077000000     4.947000000
H    -2.579000000    -1.960000000     4.247000000
H    -1.895000000    -1.224000000     5.379000000
O    -4.449000000     1.745000000     2.084000000
H    -3.868000000     2.504000000     2.046000000
H    -4.671000000     1.659000000     3.012000000
O     3.228000000    -4.442000000    -4.132000000
H     3.409000000    -3.561000000    -3.807000000
H     2.817000000    -4.891000000    -3.393000000
O    -5.216000000     2.248000000    -5.390000000
H    -5.208000000     1.763000000    -4.564000000
H    -6.125000000     2.201000000    -5.686000000
O     1.455000000     4.454000000     5.078000000
H     2.206000000     3.968000000     5.418000000
H     1.117000000     4.932000000     5.836000000
O     3.853000000    -0.855000000     2.985000000
H     4.259000000    -0.025000000     3.236000000
H     4.575000000    -1.383000000     2.646000000
O    -0.006000000    -4.455000000    -6.335000000
H     0.264000000    -4.444000000    -5.416000000
H    -0.425000000    -3.605000000    -6.471000000
O    -0.655000000     5.053000000     1.020000000
H    -0.029000000     4.618000000     1.599000000
H    -0.692000000     5.954000000     1.340000000
O     2.918000000    -1.616000000    -5.147000000
H     2.610000000    -0.757000000    -5.436000000
H     2.393000000    -1.811000000    -4.371000000
O     3.575000000    -2.904000000    -1.397000000
H     3.048000000    -3.093000000    -0.621000000
H     3.020000000    -2.334000000    -1.930000000
O     5.589000000    -1.510000000    -5.251000000
H     4.716000000    -1.881000000    -5.129000000
H     5.449000000    -0.563000000    -5.257000000
O     3.952000000     2.538000000     1.051000000
H     3.931000000     3.172000000     0.334000000
H     3.860000000     1.688000000     0.622000000
O     0.485000000     1.553000000     6.015000000
H     1.152000000     0.970000000     5.652000000
H     0.789000000     2.433000000     5.791000000
O    -4.717000000    -0.417000000     0.698000000
H    -4.060000000    -0.950000000     1.145000000
H    -4.500000000     0.483000000     0.939000000
O    -3.975000000     0.204000000    -3.189000000
H    -3.411000000     0.630000000    -3.835000000
H    -3.984000000    -0.717000000    -3.450000000
O    -2.793000000     3.888000000     2.177000000
H    -2.159000000     4.297000000     1.587000000
H    -3.172000000     4.619000000     2.665000000
O     2.173000000    -3.871000000     0.704000000
H     1.767000000    -4.604000000     0.241000000
H     2.679000000    -4.281000000     1.405000000
O     0.219000000    -4.142000000    -3.718000000
H     0.595000000    -3.269000000    -3.607000000
H    -0.643000000    -4.086000000    -3.304000000
O    -5.155000000     4.807000000    -1.965000000
H    -5.058000000     4.085000000    -1.344000000
H    -4.379000000     5.350000000    -1.825000000
O     1.513000000     0.763000000    -5.784000000
H     0.962000000     0.128000000    -5.325000000
H     0.924000000     1.181000000    -6.412000000
O    -6.841000000     0.583000000    -1.015000000
H    -7.264000000    -0.103000000    -0.499000000
H    -5.936000000     0.285000000    -1.112000000
O    -1.847000000    -2.907000000    -2.278000000
H    -1.552000000    -2.212000000    -1.690000000
H    -2.734000000    -2.649000000    -2.528000000
O     5.066000000     1.602000000     3.419000000
H     4.982000000     2.161000000     2.646000000
H     6.002000000     1.608000000     3.618000000
O    -3.414000000     2.521000000    -1.841000000
H    -3.017000000     2.945000000    -2.602000000
H    -3.812000000     1.724000000    -2.192000000
O    -3.054000000    -2.376000000     2.237000000
H    -2.156000000    -2.696000000     2.148000000
H    -3.596000000    -3.162000000     2.176000000
O    -0.577000000     1.903000000    -7.379000000
H    -1.077000000     1.767000000    -6.574000000
H    -0.364000000     2.836000000    -7.373000000
O     3.762000000     2.826000000     5.419000000
H     4.294000000     2.467000000     6.130000000
H     4.132000000     2.441000000     4.625000000
O     2.744000000     2.704000000    -4.374000000
H     2.135000000     2.051000000    -4.719000000
H     2.471000000     2.831000000    -3.466000000
O     2.118000000    -6.235000000    -2.343000000
H     1.345000000    -5.721000000    -2.580000000
H     1.803000000    -7.138000000    -2.306000000
O     4.999000000     1.094000000    -4.870000000
H     4.220000000     1.649000000    -4.908000000
H     5.207000000     1.037000000    -3.937000000
