161
-3041.98070
C     1.454000000     0.024000000    -0.018000000
H     2.540000000     0.037000000    -0.033000000
C     0.706000000    -0.069000000     1.148000000
H     1.204000000    -0.255000000     2.096000000
C    -0.683000000    -0.077000000     1.019000000
C    -1.540000000    -0.161000000     2.252000000
H    -1.343000000    -1.141000000     2.692000000
H    -1.253000000     0.554000000     3.026000000
H    -2.589000000    -0.088000000     1.957000000
C    -1.302000000     0.100000000    -0.203000000
H    -2.371000000     0.140000000    -0.395000000
C    -0.534000000     0.232000000    -1.341000000
H    -1.035000000     0.288000000    -2.304000000
C     0.866000000     0.030000000    -1.285000000
C     1.738000000     0.164000000    -2.522000000
O     1.293000000     0.502000000    -3.624000000
O     2.842000000    -0.273000000    -2.472000000
O    -0.441000000    -1.244000000     7.523000000
H    -0.994000000    -1.535000000     6.799000000
H    -0.995000000    -0.643000000     8.021000000
O     5.108000000    -1.383000000     1.215000000
H     4.569000000    -2.155000000     1.386000000
H     5.998000000    -1.725000000     1.136000000
O    -3.279000000    -3.231000000    -0.142000000
H    -3.568000000    -4.105000000     0.120000000
H    -4.024000000    -2.664000000     0.056000000
O     1.380000000     5.645000000    -4.898000000
H     2.238000000     5.298000000    -4.652000000
H     0.784000000     4.903000000    -4.795000000
O     1.764000000    -2.438000000     6.587000000
H     0.951000000    -2.070000000     6.933000000
H     1.538000000    -2.734000000     5.706000000
O     6.049000000     0.432000000    -4.070000000
H     5.229000000     0.429000000    -4.564000000
H     6.163000000    -0.476000000    -3.789000000
O     3.520000000    -3.487000000     2.390000000
H     3.675000000    -4.391000000     2.666000000
H     2.617000000    -3.485000000     2.072000000
O    -0.846000000     2.389000000    -4.230000000
H    -0.179000000     1.704000000    -4.259000000
H    -0.488000000     3.095000000    -4.769000000
O    -4.663000000    -2.984000000    -2.844000000
H    -5.476000000    -3.253000000    -2.417000000
H    -3.993000000    -3.080000000    -2.168000000
O    -2.497000000    -3.899000000     3.376000000
H    -2.188000000    -4.729000000     3.737000000
H    -2.861000000    -4.130000000     2.521000000
O    -2.746000000     3.475000000     5.842000000
H    -2.632000000     4.214000000     5.245000000
H    -2.105000000     3.627000000     6.537000000
O     6.382000000    -2.921000000    -2.791000000
H     6.587000000    -3.329000000    -3.632000000
H     5.426000000    -2.933000000    -2.747000000
O    -0.013000000     3.647000000    -6.610000000
H    -0.959000000     3.557000000    -6.726000000
H     0.273000000     4.164000000    -7.363000000
O     5.612000000     2.452000000     0.969000000
H     5.218000000     1.906000000     1.650000000
H     6.282000000     2.959000000     1.427000000
O    -4.738000000     0.616000000     4.609000000
H    -5.236000000     0.911000000     5.372000000
H    -4.798000000     1.342000000     3.989000000
O    -2.098000000    -1.251000000    -6.326000000
H    -1.195000000    -1.226000000    -6.008000000
H    -2.028000000    -1.061000000    -7.261000000
O    -3.129000000     3.837000000     1.874000000
H    -3.433000000     4.422000000     1.180000000
H    -2.460000000     3.296000000     1.454000000
O    -4.597000000    -1.921000000     3.555000000
H    -3.756000000    -2.315000000     3.786000000
H    -4.512000000    -1.005000000     3.819000000
O    -6.397000000     1.799000000     0.738000000
H    -7.115000000     1.234000000     1.023000000
H    -6.810000000     2.647000000     0.573000000
O     2.043000000     0.336000000     6.917000000
H     2.917000000     0.725000000     6.876000000
H     2.155000000    -0.541000000     6.549000000
O     4.902000000    -2.744000000     4.936000000
H     4.716000000    -2.421000000     4.054000000
H     4.775000000    -1.982000000     5.501000000
O    -0.295000000     3.007000000     0.830000000
H     0.138000000     2.164000000     0.697000000
H     0.383000000     3.567000000     1.209000000
O     0.457000000    -1.282000000    -5.684000000
H     1.199000000    -1.634000000    -6.176000000
H     0.841000000    -0.613000000    -5.117000000
O    -2.384000000    -2.180000000     5.673000000
H    -2.388000000    -2.476000000     4.763000000
H    -2.320000000    -2.985000000     6.186000000
O     5.521000000    -1.828000000    -6.924000000
H     5.075000000    -1.501000000    -7.705000000
H     4.832000000    -1.893000000    -6.263000000
O     3.773000000    -2.821000000    -2.552000000
H     3.062000000    -3.399000000    -2.274000000
H     3.390000000    -1.944000000    -2.536000000
O     2.077000000     4.216000000     4.785000000
H     1.624000000     3.531000000     5.278000000
H     1.661000000     4.206000000     3.924000000
O    -5.685000000    -1.112000000     0.271000000
H    -5.326000000    -0.229000000     0.180000000
H    -6.453000000    -1.118000000    -0.300000000
O    -4.466000000    -1.203000000    -4.947000000
H    -3.632000000    -0.913000000    -5.315000000
H    -4.238000000    -1.956000000    -4.401000000
O     0.313000000    -2.822000000     4.367000000
H     0.930000000    -2.793000000     3.636000000
H    -0.540000000    -2.650000000     3.968000000
O    -2.007000000     3.600000000    -1.712000000
H    -1.734000000     3.030000000    -2.432000000
H    -1.529000000     3.269000000    -0.951000000
O    -5.862000000    -3.410000000     1.480000000
H    -6.149000000    -2.694000000     0.913000000
H    -5.297000000    -2.990000000     2.129000000
O     1.378000000    -4.543000000    -1.797000000
H     0.768000000    -3.978000000    -1.324000000
H     1.254000000    -5.409000000    -1.408000000
O     5.278000000     2.237000000    -1.972000000
H     5.544000000     1.400000000    -2.351000000
H     5.439000000     2.137000000    -1.033000000
O     1.195000000    -4.894000000    -4.415000000
H     0.256000000    -4.748000000    -4.529000000
H     1.354000000    -4.716000000    -3.488000000
O    -4.523000000     2.279000000    -1.570000000
H    -3.602000000     2.532000000    -1.518000000
H    -4.808000000     2.223000000    -0.658000000
O     2.894000000     0.830000000    -9.033000000
H     2.750000000     1.567000000    -9.627000000
H     2.714000000     1.185000000    -8.163000000
O     2.714000000     2.673000000    -3.929000000
H     2.205000000     1.890000000    -3.721000000
H     3.512000000     2.586000000    -3.408000000
O    -5.942000000     0.310000000    -3.276000000
H    -5.390000000     1.024000000    -2.956000000
H    -5.358000000    -0.219000000    -3.819000000
O    -0.574000000    -3.084000000    -0.674000000
H    -0.378000000    -2.150000000    -0.751000000
H    -1.511000000    -3.117000000    -0.479000000
O     0.241000000     2.369000000     5.742000000
H     0.646000000     1.510000000     5.859000000
H    -0.697000000     2.186000000     5.683000000
O    -5.349000000     2.517000000     2.984000000
H    -5.621000000     2.351000000     2.082000000
H    -4.625000000     3.139000000     2.906000000
O     4.722000000     0.678000000     3.138000000
H     4.282000000     0.144000000     2.476000000
H     5.558000000     0.236000000     3.285000000
O     4.431000000     1.653000000     5.654000000
H     4.228000000     2.588000000     5.630000000
H     4.559000000     1.412000000     4.736000000
O     5.479000000    -0.282000000    -1.395000000
H     4.637000000    -0.393000000    -1.836000000
H     5.319000000    -0.574000000    -0.497000000
O     2.410000000     2.265000000    -6.703000000
H     2.511000000     2.370000000    -5.757000000
H     1.566000000     2.671000000    -6.901000000
O     3.766000000    -1.038000000    -5.007000000
H     3.408000000    -0.457000000    -4.337000000
H     3.542000000    -1.919000000    -4.705000000
O     0.767000000    -3.799000000     1.812000000
H     0.663000000    -4.749000000     1.760000000
H     0.159000000    -3.455000000     1.157000000
