161
-3056.36476
C     1.064000000     0.925000000     0.362000000
H     1.733000000     1.708000000     0.710000000
C    -0.163000000     0.854000000     1.009000000
H    -0.347000000     1.479000000     1.880000000
C    -1.096000000    -0.106000000     0.607000000
C    -2.410000000    -0.330000000     1.340000000
H    -2.968000000    -1.042000000     0.728000000
H    -2.167000000    -0.676000000     2.347000000
H    -2.909000000     0.641000000     1.370000000
C    -0.782000000    -0.955000000    -0.493000000
H    -1.385000000    -1.833000000    -0.709000000
C     0.398000000    -0.767000000    -1.142000000
H     0.685000000    -1.309000000    -2.040000000
C     1.306000000     0.206000000    -0.791000000
C     2.659000000     0.408000000    -1.565000000
O     2.844000000    -0.275000000    -2.537000000
O     3.543000000     1.080000000    -1.069000000
O     0.685000000    -2.736000000     2.570000000
H     0.932000000    -3.359000000     3.253000000
H    -0.042000000    -3.158000000     2.112000000
O     1.688000000     3.974000000     1.834000000
H     2.622000000     3.830000000     1.677000000
H     1.606000000     3.993000000     2.787000000
O     1.558000000     3.195000000    -3.850000000
H     1.717000000     3.440000000    -2.938000000
H     0.805000000     2.606000000    -3.812000000
O     6.480000000    -1.397000000    -1.756000000
H     6.380000000    -0.888000000    -2.560000000
H     6.641000000    -0.742000000    -1.077000000
O    -5.292000000     0.673000000    -3.058000000
H    -5.845000000     1.367000000    -3.417000000
H    -5.459000000     0.696000000    -2.116000000
O     1.472000000    -0.188000000     3.269000000
H     1.522000000     0.471000000     2.577000000
H     1.063000000    -0.945000000     2.850000000
O    -1.253000000     4.399000000     1.835000000
H    -1.158000000     5.344000000     1.952000000
H    -0.405000000     4.112000000     1.497000000
O    -1.682000000    -3.955000000     1.699000000
H    -2.463000000    -3.403000000     1.749000000
H    -1.866000000    -4.566000000     0.986000000
O     6.682000000    -0.022000000    -4.243000000
H     6.466000000    -0.340000000    -5.120000000
H     5.939000000     0.530000000    -3.999000000
O    -7.496000000    -0.437000000     0.704000000
H    -6.694000000    -0.544000000     0.192000000
H    -7.198000000    -0.097000000     1.548000000
O     6.359000000     0.938000000    -0.332000000
H     6.965000000     1.634000000    -0.080000000
H     5.548000000     1.395000000    -0.555000000
O     3.383000000    -0.905000000    -7.472000000
H     3.181000000    -0.097000000    -7.001000000
H     3.314000000    -1.592000000    -6.809000000
O     4.977000000     1.013000000     3.246000000
H     4.488000000     0.539000000     2.573000000
H     5.888000000     0.965000000     2.959000000
O    -4.248000000     0.878000000     4.309000000
H    -3.702000000     1.525000000     3.863000000
H    -3.901000000     0.845000000     5.200000000
O     3.146000000    -4.706000000    -1.193000000
H     3.485000000    -5.409000000    -0.639000000
H     2.580000000    -4.196000000    -0.614000000
O    -6.894000000     1.389000000     3.923000000
H    -7.353000000     1.552000000     4.747000000
H    -5.998000000     1.177000000     4.186000000
O    -0.958000000     1.327000000    -3.083000000
H    -0.596000000     0.525000000    -2.706000000
H    -1.620000000     1.021000000    -3.704000000
O    -0.789000000     0.584000000     4.911000000
H    -0.016000000     0.311000000     4.417000000
H    -1.138000000     1.326000000     4.419000000
O    -5.631000000     3.683000000     2.138000000
H    -5.408000000     3.909000000     3.042000000
H    -4.822000000     3.831000000     1.648000000
O     5.033000000     4.147000000    -3.590000000
H     4.185000000     4.326000000    -3.995000000
H     5.009000000     4.625000000    -2.761000000
O     5.380000000     0.938000000    -6.786000000
H     5.014000000     0.847000000    -5.906000000
H     4.684000000     1.356000000    -7.293000000
O    -5.333000000    -1.440000000     3.437000000
H    -6.032000000    -1.393000000     4.089000000
H    -4.826000000    -0.639000000     3.571000000
O    -2.900000000     0.321000000     7.102000000
H    -2.305000000     0.303000000     6.353000000
H    -2.347000000     0.109000000     7.854000000
O    -3.788000000    -5.611000000    -3.668000000
H    -3.668000000    -5.257000000    -2.787000000
H    -4.736000000    -5.712000000    -3.759000000
O    -2.511000000    -2.248000000    -3.834000000
H    -2.097000000    -2.742000000    -4.541000000
H    -2.653000000    -1.376000000    -4.202000000
O     0.041000000     4.109000000    -0.555000000
H     0.080000000     3.164000000    -0.408000000
H     0.950000000     4.364000000    -0.715000000
O    -2.286000000     3.594000000    -1.717000000
H    -1.914000000     2.896000000    -2.257000000
H    -1.534000000     3.971000000    -1.261000000
O     2.526000000    -5.440000000    -3.983000000
H     3.003000000    -5.491000000    -3.155000000
H     2.536000000    -4.510000000    -4.209000000
O    -3.356000000    -3.457000000    -1.508000000
H    -4.019000000    -2.930000000    -1.061000000
H    -3.265000000    -3.049000000    -2.369000000
O     2.536000000    -2.561000000     0.612000000
H     3.124000000    -3.185000000     1.039000000
H     1.790000000    -2.489000000     1.207000000
O    -3.468000000     4.044000000     0.728000000
H    -3.172000000     3.825000000    -0.156000000
H    -2.662000000     4.213000000     1.215000000
O    -4.523000000    -3.373000000     1.743000000
H    -5.316000000    -3.791000000     1.408000000
H    -4.833000000    -2.796000000     2.441000000
O     3.210000000    -2.772000000    -3.202000000
H     3.119000000    -1.841000000    -2.998000000
H     3.040000000    -3.216000000    -2.371000000
O     2.780000000     3.798000000    -1.309000000
H     2.977000000     2.881000000    -1.119000000
H     3.550000000     4.277000000    -1.003000000
O    -1.065000000    -5.822000000    -3.911000000
H    -1.935000000    -5.514000000    -4.165000000
H    -0.705000000    -5.111000000    -3.382000000
O    -5.400000000     1.690000000    -0.456000000
H    -4.551000000     2.103000000    -0.302000000
H    -5.932000000     1.948000000     0.298000000
O     2.550000000     1.608000000    -6.689000000
H     2.468000000     1.782000000    -5.752000000
H     2.047000000     2.307000000    -7.108000000
O    -5.946000000    -2.246000000    -2.150000000
H    -5.877000000    -1.301000000    -2.279000000
H    -6.620000000    -2.524000000    -2.771000000
O    -2.137000000     2.586000000     3.663000000
H    -1.815000000     3.111000000     2.931000000
H    -2.314000000     3.223000000     4.355000000
O     0.829000000     4.700000000     4.481000000
H     0.133000000     4.176000000     4.876000000
H     1.576000000     4.590000000     5.071000000
O     5.640000000    -3.749000000    -3.905000000
H     4.801000000    -3.449000000    -3.554000000
H     6.117000000    -4.073000000    -3.141000000
O    -2.598000000    -5.708000000     0.141000000
H    -3.156000000    -5.027000000    -0.234000000
H    -3.200000000    -6.268000000     0.631000000
O     0.747000000    -1.210000000    -4.656000000
H     0.626000000    -2.159000000    -4.654000000
H     1.450000000    -1.056000000    -4.025000000
O     4.368000000     3.640000000     2.684000000
H     4.962000000     4.141000000     3.244000000
H     4.602000000     2.726000000     2.844000000
O     4.236000000    -0.499000000     1.163000000
H     4.226000000     0.058000000     0.385000000
H     3.589000000    -1.180000000     0.980000000
O    -0.523000000    -3.917000000    -2.016000000
H    -0.778000000    -3.046000000    -2.321000000
H    -1.267000000    -4.214000000    -1.492000000
O     4.253000000     1.447000000    -4.154000000
H     4.432000000     2.304000000    -3.768000000
H     3.796000000     0.964000000    -3.466000000
O    -1.728000000    -4.323000000     4.373000000
H    -2.517000000    -3.973000000     4.787000000
H    -1.786000000    -4.033000000     3.463000000
