161
-3004.69759
C     0.760000000     1.230000000     0.208000000
H     1.126000000     2.239000000     0.383000000
C    -0.460000000     0.897000000     0.721000000
H    -0.920000000     1.690000000     1.305000000
C    -1.103000000    -0.269000000     0.473000000
C    -2.511000000    -0.489000000     0.946000000
H    -3.103000000    -0.669000000     0.047000000
H    -2.460000000    -1.348000000     1.618000000
H    -2.901000000     0.371000000     1.495000000
C    -0.493000000    -1.208000000    -0.254000000
H    -0.915000000    -2.166000000    -0.548000000
C     0.738000000    -0.906000000    -0.817000000
H     1.165000000    -1.713000000    -1.409000000
C     1.466000000     0.298000000    -0.488000000
C     2.834000000     0.656000000    -1.155000000
O     3.437000000    -0.297000000    -1.695000000
O     3.332000000     1.691000000    -0.824000000
O     2.968000000    -2.274000000     1.774000000
H     2.091000000    -2.305000000     2.156000000
H     3.495000000    -1.809000000     2.424000000
O     8.278000000     1.566000000    -0.777000000
H     8.635000000     1.930000000     0.033000000
H     7.352000000     1.415000000    -0.584000000
O    -6.387000000    -1.337000000     1.506000000
H    -5.882000000    -1.927000000     0.946000000
H    -7.301000000    -1.537000000     1.301000000
O    -2.141000000     6.287000000    -1.080000000
H    -2.633000000     5.514000000    -0.805000000
H    -1.634000000     6.536000000    -0.307000000
O     0.373000000    -2.708000000     2.040000000
H     0.151000000    -2.414000000     1.157000000
H    -0.370000000    -2.433000000     2.578000000
O     5.794000000     1.024000000     0.251000000
H     5.657000000     0.268000000    -0.319000000
H     4.942000000     1.459000000     0.281000000
O     2.883000000    -0.926000000    -5.596000000
H     2.112000000    -0.477000000    -5.249000000
H     3.123000000    -1.553000000    -4.913000000
O     5.233000000    -4.588000000     0.084000000
H     5.093000000    -3.666000000    -0.132000000
H     6.182000000    -4.703000000     0.042000000
O    -3.144000000     2.631000000     3.517000000
H    -2.813000000     3.390000000     3.037000000
H    -3.939000000     2.946000000     3.946000000
O     2.278000000    -4.289000000    -0.474000000
H     3.121000000    -4.740000000    -0.424000000
H     2.192000000    -3.845000000     0.370000000
O     6.172000000     5.100000000    -0.775000000
H     5.289000000     4.731000000    -0.782000000
H     6.143000000     5.777000000    -0.100000000
O    -6.268000000     1.336000000     4.157000000
H    -7.017000000     0.979000000     3.678000000
H    -5.512000000     0.868000000     3.802000000
O    -0.914000000     0.630000000    -2.658000000
H    -0.477000000     0.140000000    -1.962000000
H    -1.837000000     0.634000000    -2.406000000
O     5.514000000     3.586000000     3.433000000
H     5.698000000     2.668000000     3.237000000
H     6.365000000     3.957000000     3.666000000
O     5.346000000     4.949000000    -3.556000000
H     6.010000000     4.597000000    -4.149000000
H     4.693000000     4.252000000    -3.488000000
O    -5.272000000    -4.903000000     1.971000000
H    -5.272000000    -4.175000000     1.350000000
H    -5.113000000    -4.493000000     2.821000000
O    -1.487000000     0.643000000     5.376000000
H    -2.071000000     0.690000000     6.133000000
H    -1.821000000     1.308000000     4.774000000
O    -4.991000000    -1.094000000     3.939000000
H    -5.649000000    -1.610000000     4.404000000
H    -5.321000000    -1.036000000     3.042000000
O    -1.891000000    -2.424000000    -4.314000000
H    -2.484000000    -2.271000000    -5.050000000
H    -1.016000000    -2.381000000    -4.698000000
O     4.763000000    -1.975000000    -0.057000000
H     4.297000000    -1.290000000    -0.536000000
H     4.123000000    -2.302000000     0.576000000
O     1.192000000     5.520000000    -0.673000000
H     0.817000000     4.911000000    -1.308000000
H     0.443000000     6.021000000    -0.350000000
O    -4.089000000    -4.124000000     4.574000000
H    -3.706000000    -4.788000000     5.147000000
H    -4.062000000    -3.318000000     5.090000000
O    -1.405000000    -3.584000000     6.190000000
H    -0.483000000    -3.389000000     6.361000000
H    -1.594000000    -3.139000000     5.364000000
O    -0.180000000     3.600000000    -1.988000000
H    -0.048000000     2.653000000    -1.949000000
H     0.023000000     3.833000000    -2.894000000
O     5.587000000    -1.878000000    -5.550000000
H     4.827000000    -1.481000000    -5.975000000
H     5.783000000    -2.649000000    -6.082000000
O     0.191000000     0.380000000    -5.096000000
H    -0.378000000     0.356000000    -4.327000000
H     0.771000000     1.126000000    -4.943000000
O     0.801000000    -5.588000000    -2.161000000
H     1.188000000    -5.053000000    -1.469000000
H     0.092000000    -6.064000000    -1.729000000
O    -3.285000000    -2.135000000    -1.991000000
H    -2.838000000    -2.333000000    -2.814000000
H    -3.345000000    -1.180000000    -1.975000000
O    -6.237000000     0.808000000    -1.752000000
H    -6.766000000     0.044000000    -1.980000000
H    -6.518000000     1.486000000    -2.368000000
O    -4.644000000     4.061000000     0.092000000
H    -4.960000000     3.208000000     0.389000000
H    -4.015000000     3.856000000    -0.600000000
O    -3.014000000     3.698000000    -2.086000000
H    -3.434000000     3.574000000    -2.938000000
H    -2.081000000     3.766000000    -2.287000000
O    -1.846000000    -1.781000000     4.198000000
H    -2.648000000    -1.707000000     3.680000000
H    -1.714000000    -0.906000000     4.562000000
O     3.447000000    -2.653000000    -2.945000000
H     3.402000000    -1.828000000    -2.462000000
H     2.957000000    -3.273000000    -2.405000000
O     3.600000000     4.256000000    -0.937000000
H     3.430000000     3.379000000    -0.594000000
H     2.765000000     4.716000000    -0.842000000
O    -2.124000000    -5.125000000    -2.907000000
H    -1.825000000    -5.892000000    -2.421000000
H    -1.696000000    -4.385000000    -2.476000000
O    -6.490000000     1.833000000     1.028000000
H    -6.534000000     0.951000000     0.659000000
H    -6.986000000     1.776000000     1.845000000
O    -5.180000000    -2.967000000    -0.172000000
H    -5.827000000    -3.111000000    -0.863000000
H    -4.360000000    -2.810000000    -0.640000000
O     0.332000000    -5.523000000     1.857000000
H     0.446000000    -4.582000000     1.992000000
H    -0.300000000    -5.786000000     2.525000000
O    -2.043000000     5.406000000     4.087000000
H    -1.851000000     4.647000000     4.638000000
H    -1.191000000     5.821000000     3.946000000
O     2.565000000    -5.316000000    -4.129000000
H     1.881000000    -5.307000000    -3.459000000
H     2.777000000    -4.393000000    -4.268000000
O     5.824000000    -0.636000000    -2.739000000
H     5.886000000    -1.031000000    -3.608000000
H     4.885000000    -0.519000000    -2.595000000
O    -3.454000000     0.592000000    -2.250000000
H    -4.315000000     0.440000000    -1.859000000
H    -3.518000000     1.464000000    -2.639000000
O     7.441000000    -2.130000000    -1.026000000
H     7.245000000    -2.327000000    -0.110000000
H     6.740000000    -1.537000000    -1.298000000
O     2.312000000     2.212000000    -5.102000000
H     3.161000000     2.285000000    -4.666000000
H     1.943000000     3.094000000    -5.056000000
O     3.524000000     5.256000000     2.879000000
H     3.500000000     5.760000000     3.692000000
H     3.950000000     4.433000000     3.119000000
O     3.756000000     0.061000000     3.203000000
H     3.499000000     0.792000000     2.640000000
H     3.884000000     0.456000000     4.065000000
O    -1.421000000    -6.546000000    -0.751000000
H    -0.928000000    -6.290000000     0.029000000
H    -2.297000000    -6.749000000    -0.424000000
O     4.529000000     2.158000000    -3.422000000
H     5.445000000     1.913000000    -3.289000000
H     4.170000000     2.231000000    -2.538000000
