161
-3064.14303
C     0.391000000     1.367000000    -0.607000000
H     0.375000000     2.337000000    -1.098000000
C    -0.443000000     1.077000000     0.494000000
H    -0.987000000     1.852000000     1.029000000
C    -0.698000000    -0.211000000     0.969000000
C    -1.735000000    -0.484000000     2.086000000
H    -1.828000000    -1.450000000     2.586000000
H    -1.726000000     0.260000000     2.884000000
H    -2.716000000    -0.431000000     1.609000000
C     0.062000000    -1.245000000     0.456000000
H     0.008000000    -2.226000000     0.923000000
C     0.873000000    -0.979000000    -0.643000000
H     1.415000000    -1.846000000    -1.012000000
C     1.003000000     0.289000000    -1.238000000
C     1.808000000     0.503000000    -2.484000000
O     1.971000000    -0.450000000    -3.227000000
O     2.233000000     1.633000000    -2.725000000
O    -3.827000000    -3.140000000    -0.023000000
H    -4.118000000    -4.034000000     0.159000000
H    -2.871000000    -3.194000000    -0.018000000
O     2.284000000     0.844000000     1.468000000
H     1.726000000     0.698000000     0.703000000
H     1.683000000     0.812000000     2.212000000
O    -2.987000000     0.184000000     8.224000000
H    -3.806000000    -0.038000000     8.666000000
H    -3.173000000     0.052000000     7.295000000
O     4.060000000    -1.235000000     2.389000000
H     3.759000000    -2.036000000     1.961000000
H     3.567000000    -0.535000000     1.961000000
O     0.884000000    -2.327000000    -6.713000000
H     1.614000000    -2.946000000    -6.726000000
H     0.542000000    -2.380000000    -5.820000000
O     2.629000000    -3.534000000     1.562000000
H     2.071000000    -4.070000000     0.999000000
H     3.226000000    -4.159000000     1.974000000
O     2.485000000     3.327000000    -0.606000000
H     2.809000000     4.136000000    -1.002000000
H     2.403000000     2.718000000    -1.340000000
O     4.770000000     3.574000000    -5.852000000
H     3.900000000     3.880000000    -6.109000000
H     4.602000000     2.794000000    -5.324000000
O     2.011000000     3.859000000     2.075000000
H     1.705000000     4.705000000     1.747000000
H     2.018000000     3.292000000     1.304000000
O     6.928000000     1.876000000    -3.259000000
H     6.006000000     1.893000000    -3.515000000
H     7.373000000     1.451000000    -3.992000000
O     2.757000000    -5.570000000    -3.488000000
H     3.147000000    -4.902000000    -2.924000000
H     1.822000000    -5.369000000    -3.485000000
O    -2.803000000    -0.113000000     5.341000000
H    -2.143000000     0.097000000     4.680000000
H    -2.978000000    -1.046000000     5.217000000
O    -3.403000000    -3.659000000     3.136000000
H    -2.492000000    -3.937000000     3.227000000
H    -3.720000000    -4.129000000     2.364000000
O    -6.514000000    -3.065000000     2.650000000
H    -6.895000000    -3.421000000     3.453000000
H    -5.718000000    -3.579000000     2.515000000
O    -2.112000000     4.647000000    -0.469000000
H    -2.698000000     3.896000000    -0.559000000
H    -1.650000000     4.494000000     0.355000000
O    -3.937000000     2.475000000    -0.531000000
H    -4.844000000     2.677000000    -0.758000000
H    -3.825000000     1.559000000    -0.786000000
O     1.183000000    -4.957000000    -0.189000000
H     0.255000000    -4.729000000    -0.250000000
H     1.208000000    -5.902000000    -0.336000000
O     0.090000000    -4.977000000    -4.082000000
H    -0.777000000    -5.291000000    -3.825000000
H    -0.016000000    -4.031000000    -4.175000000
O    -3.061000000     3.690000000     3.990000000
H    -2.397000000     3.699000000     3.301000000
H    -3.821000000     3.272000000     3.586000000
O     4.160000000     0.753000000    -8.033000000
H     4.981000000     0.342000000    -7.762000000
H     3.654000000     0.833000000    -7.224000000
O     4.986000000    -1.585000000    -3.970000000
H     5.337000000    -2.226000000    -3.351000000
H     4.073000000    -1.844000000    -4.092000000
O     0.763000000     5.996000000     1.513000000
H     0.664000000     6.712000000     2.141000000
H     1.152000000     6.407000000     0.741000000
O    -4.591000000    -2.441000000     5.366000000
H    -4.378000000    -2.835000000     4.519000000
H    -5.507000000    -2.676000000     5.514000000
O     0.924000000    -2.905000000     3.510000000
H     0.562000000    -2.029000000     3.643000000
H     1.531000000    -2.804000000     2.778000000
O     6.223000000    -0.570000000    -6.493000000
H     5.665000000    -0.957000000    -5.819000000
H     6.515000000    -1.314000000    -7.020000000
O     1.375000000     0.754000000    -6.040000000
H     1.382000000     0.235000000    -5.236000000
H     1.747000000     1.598000000    -5.785000000
O    -1.501000000    -4.573000000     0.525000000
H    -1.929000000    -5.429000000     0.492000000
H    -0.919000000    -4.625000000     1.283000000
O     1.894000000     4.171000000    -6.620000000
H     1.323000000     4.789000000    -7.076000000
H     1.559000000     4.152000000    -5.723000000
O     1.253000000     3.628000000    -4.068000000
H     0.979000000     4.270000000    -3.413000000
H     1.379000000     2.819000000    -3.573000000
O    -0.670000000     2.190000000     5.558000000
H    -1.603000000     2.303000000     5.376000000
H    -0.641000000     1.543000000     6.263000000
O    -6.491000000    -0.021000000    -2.287000000
H    -7.306000000     0.173000000    -1.824000000
H    -5.901000000    -0.345000000    -1.607000000
O    -0.225000000     5.265000000    -2.352000000
H    -0.637000000     5.312000000    -3.214000000
H    -0.907000000     4.916000000    -1.779000000
O     0.730000000     0.136000000     4.163000000
H     0.181000000     0.820000000     4.547000000
H     1.607000000     0.316000000     4.502000000
O    -4.755000000     2.297000000     1.969000000
H    -4.947000000     1.386000000     1.748000000
H    -4.162000000     2.592000000     1.277000000
O    -0.122000000    -2.273000000    -3.940000000
H     0.687000000    -1.856000000    -3.644000000
H    -0.819000000    -1.729000000    -3.575000000
O    -2.578000000    -0.129000000    -3.724000000
H    -1.978000000    -0.032000000    -4.464000000
H    -3.169000000     0.621000000    -3.795000000
O     4.335000000     1.379000000    -4.220000000
H     4.571000000     0.473000000    -4.022000000
H     3.524000000     1.528000000    -3.735000000
O    -5.796000000    -0.125000000     1.729000000
H    -6.322000000    -0.855000000     1.403000000
H    -6.021000000    -0.064000000     2.658000000
O     1.209000000     7.150000000    -1.065000000
H     0.754000000     7.866000000    -1.510000000
H     0.895000000     6.359000000    -1.502000000
O    -5.853000000     0.095000000     4.656000000
H    -5.410000000    -0.561000000     5.194000000
H    -5.561000000     0.934000000     5.014000000
O     6.196000000    -2.885000000     0.135000000
H     5.730000000    -2.050000000     0.155000000
H     7.118000000    -2.648000000     0.240000000
O    -4.056000000    -0.690000000    -1.091000000
H    -4.127000000    -1.391000000    -0.444000000
H    -3.196000000    -0.818000000    -1.490000000
O    -0.661000000    -4.954000000     3.241000000
H    -0.373000000    -5.752000000     3.685000000
H    -0.125000000    -4.260000000     3.627000000
O     4.646000000    -0.825000000    -0.484000000
H     4.530000000    -0.297000000    -1.273000000
H     4.334000000    -0.265000000     0.227000000
O    -1.387000000     0.638000000    -5.996000000
H    -1.326000000     1.590000000    -6.077000000
H    -0.493000000     0.328000000    -6.139000000
O    -1.192000000     4.125000000     2.221000000
H    -0.490000000     3.508000000     2.428000000
H    -0.741000000     4.950000000     2.043000000
O     3.418000000    -3.614000000    -1.644000000
H     3.798000000    -3.320000000    -0.816000000
H     2.746000000    -4.246000000    -1.388000000
O     2.698000000     2.955000000     4.724000000
H     2.474000000     3.057000000     3.799000000
H     2.185000000     3.629000000     5.170000000
