161
-3035.16350
C     0.596000000    -1.105000000     0.846000000
H     0.746000000    -1.980000000     1.473000000
C    -0.729000000    -0.674000000     0.822000000
H    -1.398000000    -1.112000000     1.558000000
C    -1.194000000     0.397000000     0.082000000
C    -2.585000000     0.964000000     0.131000000
H    -2.982000000     0.964000000    -0.886000000
H    -3.119000000     0.162000000     0.646000000
H    -2.508000000     1.902000000     0.685000000
C    -0.298000000     0.856000000    -0.923000000
H    -0.698000000     1.651000000    -1.548000000
C     1.063000000     0.466000000    -0.935000000
H     1.733000000     1.061000000    -1.550000000
C     1.522000000    -0.493000000    -0.034000000
C     2.939000000    -0.898000000    -0.102000000
O     3.640000000    -0.295000000    -0.845000000
O     3.268000000    -1.866000000     0.588000000
O     5.866000000    -2.545000000     0.199000000
H     6.228000000    -2.265000000     1.039000000
H     4.966000000    -2.220000000     0.205000000
O     2.628000000    -4.496000000    -3.129000000
H     3.422000000    -3.979000000    -3.264000000
H     2.893000000    -5.192000000    -2.528000000
O     6.357000000    -5.252000000    -0.570000000
H     5.895000000    -4.539000000    -0.128000000
H     7.019000000    -5.535000000     0.060000000
O    -3.540000000     2.082000000     4.762000000
H    -2.924000000     2.782000000     4.547000000
H    -4.403000000     2.490000000     4.684000000
O     6.026000000     1.246000000    -3.601000000
H     6.191000000     0.760000000    -2.792000000
H     6.898000000     1.459000000    -3.933000000
O    -4.260000000    -3.357000000     1.090000000
H    -4.273000000    -2.647000000     1.731000000
H    -4.085000000    -4.143000000     1.607000000
O     4.021000000     4.951000000    -2.096000000
H     3.538000000     4.701000000    -2.884000000
H     4.058000000     4.151000000    -1.573000000
O     0.750000000     4.670000000     2.877000000
H     1.030000000     4.690000000     1.962000000
H     1.534000000     4.907000000     3.373000000
O    -2.982000000     1.102000000    -3.893000000
H    -2.069000000     0.832000000    -3.990000000
H    -2.938000000     2.045000000    -3.739000000
O     2.590000000     4.257000000    -4.169000000
H     2.406000000     3.971000000    -5.063000000
H     1.733000000     4.282000000    -3.744000000
O     2.310000000     3.437000000     0.693000000
H     2.642000000     3.546000000     1.584000000
H     3.057000000     3.099000000     0.199000000
O    -4.387000000    -1.264000000     2.848000000
H    -5.210000000    -0.976000000     3.243000000
H    -3.708000000    -0.832000000     3.366000000
O    -0.895000000    -3.544000000     6.452000000
H    -0.372000000    -3.800000000     7.211000000
H    -0.257000000    -3.201000000     5.826000000
O    -2.975000000     3.870000000    -3.389000000
H    -2.953000000     4.581000000    -4.030000000
H    -3.439000000     4.240000000    -2.638000000
O    -2.144000000    -0.208000000     4.493000000
H    -2.652000000     0.602000000     4.528000000
H    -1.739000000    -0.200000000     3.626000000
O    -5.395000000     2.250000000    -4.801000000
H    -4.785000000     1.705000000    -5.298000000
H    -5.212000000     2.039000000    -3.885000000
O    -1.417000000    -5.665000000     0.991000000
H    -1.945000000    -5.626000000     1.789000000
H    -1.616000000    -6.523000000     0.615000000
O     6.509000000    -0.205000000    -1.074000000
H     5.568000000    -0.305000000    -0.932000000
H     6.872000000    -1.071000000    -0.891000000
O     4.582000000    -4.287000000     3.794000000
H     4.422000000    -5.223000000     3.672000000
H     5.229000000    -4.245000000     4.498000000
O     0.601000000     5.051000000    -0.489000000
H     0.491000000     4.808000000    -1.408000000
H     1.179000000     4.377000000    -0.130000000
O     2.276000000    -4.588000000     1.061000000
H     2.698000000    -3.751000000     0.869000000
H     1.589000000    -4.667000000     0.399000000
O    -3.254000000    -4.278000000    -1.388000000
H    -2.344000000    -4.071000000    -1.601000000
H    -3.447000000    -3.745000000    -0.617000000
O     0.329000000    -4.893000000    -0.807000000
H    -0.329000000    -5.063000000    -0.134000000
H    -0.115000000    -4.327000000    -1.439000000
O     2.212000000    -0.505000000    -5.524000000
H     2.194000000    -1.339000000    -5.993000000
H     2.746000000    -0.679000000    -4.748000000
O    -0.446000000     0.043000000    -3.958000000
H     0.474000000    -0.001000000    -4.220000000
H    -0.778000000    -0.843000000    -4.100000000
O     0.084000000     4.735000000    -3.006000000
H    -0.725000000     4.283000000    -2.770000000
H    -0.197000000     5.445000000    -3.583000000
O    -1.120000000    -2.775000000    -1.765000000
H    -1.139000000    -1.832000000    -1.597000000
H    -1.072000000    -2.847000000    -2.718000000
O     1.711000000    -5.381000000     3.600000000
H     1.814000000    -5.160000000     2.674000000
H     1.869000000    -4.558000000     4.062000000
O    -4.198000000     5.287000000    -1.233000000
H    -4.901000000     5.270000000    -1.883000000
H    -4.611000000     5.638000000    -0.444000000
O     3.486000000    -1.403000000    -3.321000000
H     3.606000000    -0.914000000    -2.507000000
H     4.210000000    -2.028000000    -3.334000000
O     0.913000000     0.290000000     5.071000000
H     0.920000000     0.588000000     4.161000000
H     0.296000000    -0.442000000     5.079000000
O     5.019000000    -0.061000000     4.046000000
H     4.395000000    -0.770000000     3.888000000
H     4.535000000     0.568000000     4.580000000
O     7.246000000    -1.450000000     2.535000000
H     6.722000000    -0.795000000     2.998000000
H     8.000000000    -0.963000000     2.204000000
O     1.643000000    -2.714000000     5.287000000
H     2.098000000    -2.801000000     6.125000000
H     2.245000000    -2.210000000     4.739000000
O    -1.375000000     3.705000000    -5.580000000
H    -0.594000000     3.286000000    -5.942000000
H    -1.710000000     3.075000000    -4.941000000
O    -6.654000000    -0.433000000     3.729000000
H    -6.286000000     0.443000000     3.839000000
H    -7.581000000    -0.283000000     3.543000000
O     3.313000000    -1.908000000     3.343000000
H     3.172000000    -1.871000000     2.397000000
H     3.799000000    -2.721000000     3.481000000
O    -6.213000000     2.654000000     3.472000000
H    -6.151000000     3.426000000     4.036000000
H    -6.952000000     2.840000000     2.893000000
O     4.969000000     1.175000000     1.337000000
H     4.538000000     0.881000000     0.534000000
H     4.936000000     0.415000000     1.918000000
O    -1.538000000     6.030000000     0.924000000
H    -1.364000000     5.463000000     0.173000000
H    -1.134000000     5.578000000     1.665000000
O     7.511000000     2.356000000     1.530000000
H     7.711000000     3.167000000     1.062000000
H     6.655000000     2.090000000     1.195000000
O    -6.280000000    -0.068000000     0.044000000
H    -6.456000000    -0.990000000     0.232000000
H    -6.038000000     0.306000000     0.891000000
O     4.006000000     2.366000000    -1.317000000
H     4.359000000     2.466000000    -2.201000000
H     3.805000000     1.434000000    -1.243000000
O     2.812000000    -7.454000000     0.999000000
H     2.717000000    -6.515000000     1.159000000
H     2.355000000    -7.604000000     0.171000000
O    -1.495000000     3.883000000     4.046000000
H    -1.717000000     4.645000000     4.580000000
H    -0.638000000     4.091000000     3.676000000
O     1.235000000     1.154000000     2.538000000
H     1.411000000     0.477000000     1.885000000
H     0.595000000     1.730000000     2.119000000
O     4.277000000     3.758000000     2.517000000
H     4.676000000     2.923000000     2.274000000
H     5.005000000     4.381000000     2.514000000
O    -5.710000000     0.849000000    -2.439000000
H    -4.786000000     0.627000000    -2.552000000
H    -5.930000000     0.523000000    -1.566000000
