161
-3053.61085
C     1.197000000     0.775000000    -0.003000000
H     2.127000000     1.324000000     0.123000000
C     0.336000000     0.663000000     1.090000000
H     0.463000000     1.288000000     1.970000000
C    -0.777000000    -0.138000000     0.959000000
C    -1.697000000    -0.243000000     2.072000000
H    -1.616000000     0.650000000     2.696000000
H    -2.740000000    -0.359000000     1.771000000
H    -1.371000000    -1.163000000     2.562000000
C    -1.022000000    -0.842000000    -0.238000000
H    -1.908000000    -1.472000000    -0.246000000
C    -0.176000000    -0.757000000    -1.351000000
H    -0.430000000    -1.243000000    -2.290000000
C     0.923000000     0.151000000    -1.229000000
C     1.903000000     0.424000000    -2.351000000
O     2.127000000    -0.399000000    -3.251000000
O     2.662000000     1.347000000    -2.290000000
O     3.247000000     3.370000000    -3.902000000
H     3.153000000     2.633000000    -3.299000000
H     2.349000000     3.644000000    -4.087000000
O     6.994000000     2.930000000     2.230000000
H     7.307000000     3.658000000     1.693000000
H     6.041000000     3.021000000     2.224000000
O     5.818000000    -1.720000000    -5.157000000
H     5.782000000    -1.026000000    -4.499000000
H     5.911000000    -1.256000000    -5.989000000
O    -4.050000000    -0.859000000     5.483000000
H    -3.920000000    -0.735000000     6.423000000
H    -4.023000000     0.026000000     5.119000000
O    -3.717000000    -2.554000000     0.970000000
H    -4.158000000    -1.773000000     0.635000000
H    -3.800000000    -3.196000000     0.265000000
O     1.854000000     3.587000000    -1.349000000
H     1.655000000     4.091000000    -2.137000000
H     2.288000000     2.798000000    -1.673000000
O     2.165000000    -3.128000000    -3.057000000
H     2.088000000    -2.175000000    -3.029000000
H     2.496000000    -3.367000000    -2.191000000
O     1.727000000    -3.994000000     3.712000000
H     2.292000000    -3.380000000     3.244000000
H     1.514000000    -4.665000000     3.063000000
O    -4.990000000    -2.884000000     3.745000000
H    -4.511000000    -2.792000000     2.921000000
H    -4.592000000    -2.238000000     4.328000000
O    -0.564000000    -0.116000000     5.992000000
H    -1.367000000    -0.321000000     6.470000000
H    -0.410000000     0.812000000     6.169000000
O     4.118000000    -2.109000000    -0.932000000
H     4.639000000    -2.298000000    -0.151000000
H     4.665000000    -1.515000000    -1.446000000
O     1.184000000     5.338000000    -3.514000000
H     1.322000000     6.257000000    -3.744000000
H     0.263000000     5.291000000    -3.258000000
O    -2.252000000     2.702000000    -0.133000000
H    -1.352000000     2.656000000    -0.456000000
H    -2.761000000     2.201000000    -0.771000000
O    -4.970000000     3.528000000    -1.474000000
H    -5.114000000     2.824000000    -0.841000000
H    -4.948000000     3.086000000    -2.323000000
O    -1.485000000    -3.827000000    -1.684000000
H    -0.687000000    -3.756000000    -1.161000000
H    -1.313000000    -4.551000000    -2.286000000
O     3.113000000     1.050000000     3.083000000
H     2.356000000     0.561000000     3.404000000
H     3.789000000     0.386000000     2.949000000
O     3.175000000     0.784000000    -7.513000000
H     3.262000000     1.737000000    -7.544000000
H     2.401000000     0.631000000    -6.971000000
O     1.274000000    -2.091000000     7.103000000
H     0.787000000    -1.392000000     6.665000000
H     1.842000000    -1.634000000     7.723000000
O    -1.556000000     4.506000000    -2.644000000
H    -2.239000000     5.173000000    -2.710000000
H    -1.922000000     3.846000000    -2.055000000
O    -3.505000000     2.086000000     4.925000000
H    -2.902000000     2.816000000     5.068000000
H    -3.772000000     2.171000000     4.010000000
O    -3.738000000     3.269000000     2.555000000
H    -3.325000000     3.202000000     1.694000000
H    -4.389000000     3.963000000     2.455000000
O    -0.179000000     4.770000000     1.021000000
H     0.478000000     4.605000000     0.345000000
H    -0.951000000     4.286000000     0.727000000
O     4.693000000     1.882000000    -0.542000000
H     4.733000000     2.837000000    -0.582000000
H     4.076000000     1.639000000    -1.232000000
O    -2.259000000     0.249000000    -3.809000000
H    -1.454000000     0.763000000    -3.744000000
H    -2.346000000     0.057000000    -4.743000000
O    -4.561000000    -4.533000000    -4.053000000
H    -4.140000000    -3.726000000    -3.758000000
H    -4.669000000    -4.416000000    -4.996000000
O     5.388000000     4.463000000    -5.114000000
H     4.694000000     4.106000000    -4.559000000
H     5.264000000     5.411000000    -5.072000000
O     4.396000000    -3.947000000    -4.320000000
H     5.016000000    -3.273000000    -4.600000000
H     3.586000000    -3.469000000    -4.143000000
O     1.127000000    -0.847000000     3.882000000
H     0.368000000    -0.581000000     4.401000000
H     1.203000000    -1.789000000     4.036000000
O     6.967000000     0.819000000     0.521000000
H     7.072000000     1.674000000     0.937000000
H     6.248000000     0.940000000    -0.099000000
O    -0.612000000    -4.598000000     5.088000000
H    -1.220000000    -4.649000000     4.349000000
H     0.192000000    -4.242000000     4.711000000
O     0.072000000     2.222000000    -4.092000000
H     0.452000000     2.167000000    -4.968000000
H    -0.033000000     3.161000000    -3.935000000
O     1.962000000    -2.032000000     1.151000000
H     2.588000000    -1.740000000     0.489000000
H     1.274000000    -1.366000000     1.140000000
O     4.790000000     0.146000000    -3.368000000
H     3.932000000    -0.278000000    -3.394000000
H     4.621000000     1.047000000    -3.643000000
O    -1.982000000    -0.414000000    -6.488000000
H    -1.777000000    -1.286000000    -6.825000000
H    -2.532000000    -0.018000000    -7.164000000
O     0.422000000    -3.973000000     0.075000000
H     0.148000000    -4.313000000     0.927000000
H     0.988000000    -3.230000000     0.285000000
O    -4.288000000     1.903000000     7.509000000
H    -5.081000000     1.384000000     7.641000000
H    -4.129000000     1.862000000     6.566000000
O     4.259000000     3.672000000     2.800000000
H     3.398000000     4.082000000     2.722000000
H     4.071000000     2.757000000     3.009000000
O    -5.115000000    -4.614000000    -0.483000000
H    -4.949000000    -5.363000000    -1.056000000
H    -5.594000000    -3.994000000    -1.033000000
O     0.785000000    -6.140000000    -1.548000000
H     0.789000000    -5.341000000    -1.021000000
H     0.938000000    -6.844000000    -0.917000000
O     0.850000000    -2.702000000    -7.589000000
H     1.051000000    -3.482000000    -8.106000000
H     0.649000000    -3.039000000    -6.716000000
O     1.173000000    -0.009000000    -5.704000000
H     1.691000000    -0.248000000    -4.935000000
H     0.383000000    -0.546000000    -5.637000000
O     1.775000000     5.059000000     3.027000000
H     2.128000000     5.947000000     3.089000000
H     1.249000000     5.066000000     2.228000000
O     0.593000000    -3.678000000    -5.199000000
H     1.216000000    -3.420000000    -4.520000000
H     0.139000000    -4.436000000    -4.832000000
O     2.095000000     4.098000000     5.846000000
H     1.947000000     4.398000000     4.950000000
H     1.474000000     3.379000000     5.964000000
O    -5.749000000    -2.271000000    -1.704000000
H    -6.426000000    -2.154000000    -2.370000000
H    -4.930000000    -2.075000000    -2.159000000
O    -3.261000000    -2.320000000    -3.170000000
H    -3.056000000    -1.429000000    -3.454000000
H    -2.414000000    -2.693000000    -2.923000000
O     4.328000000     4.861000000    -0.730000000
H     4.133000000     5.342000000    -1.534000000
H     3.537000000     4.350000000    -0.558000000
O    -3.776000000     1.044000000    -1.751000000
H    -3.095000000     0.653000000    -2.298000000
H    -4.583000000     0.925000000    -2.252000000
