161
-3056.84800
C     1.248000000     0.776000000     0.014000000
H     2.197000000     1.297000000     0.120000000
C     0.623000000     0.317000000     1.113000000
H     1.158000000     0.313000000     2.059000000
C    -0.564000000    -0.358000000     1.019000000
C    -1.319000000    -0.986000000     2.192000000
H    -1.953000000    -0.300000000     2.758000000
H    -2.027000000    -1.730000000     1.823000000
H    -0.566000000    -1.513000000     2.782000000
C    -1.119000000    -0.557000000    -0.234000000
H    -2.047000000    -1.110000000    -0.353000000
C    -0.469000000    -0.130000000    -1.370000000
H    -0.928000000    -0.334000000    -2.333000000
C     0.689000000     0.630000000    -1.242000000
C     1.472000000     1.138000000    -2.414000000
O     0.893000000     1.243000000    -3.507000000
O     2.707000000     1.304000000    -2.428000000
O     0.540000000     3.677000000     5.154000000
H     0.049000000     2.893000000     5.398000000
H     0.411000000     3.756000000     4.208000000
O     1.198000000    -0.115000000     4.518000000
H     0.635000000    -0.718000000     5.003000000
H     1.686000000     0.354000000     5.196000000
O    -0.589000000    -1.621000000     6.248000000
H     0.012000000    -2.203000000     6.713000000
H    -1.282000000    -1.437000000     6.882000000
O    -3.714000000    -0.014000000     5.262000000
H    -4.367000000    -0.281000000     5.910000000
H    -3.288000000    -0.830000000     5.001000000
O     3.363000000    -1.277000000    -1.802000000
H     3.384000000    -0.369000000    -2.104000000
H     3.114000000    -1.782000000    -2.576000000
O    -4.551000000     0.519000000     2.470000000
H    -4.136000000     1.301000000     2.105000000
H    -4.231000000     0.478000000     3.371000000
O     4.346000000    -1.931000000     5.353000000
H     4.451000000    -1.503000000     6.203000000
H     4.198000000    -1.212000000     4.739000000
O    -3.200000000    -3.879000000     0.610000000
H    -3.408000000    -2.968000000     0.817000000
H    -2.714000000    -4.193000000     1.373000000
O     2.823000000     2.846000000    -5.105000000
H     2.257000000     3.166000000    -5.807000000
H     2.267000000     2.252000000    -4.600000000
O     0.080000000    -1.833000000    -4.117000000
H     0.716000000    -2.503000000    -3.864000000
H     0.414000000    -1.027000000    -3.723000000
O     4.395000000    -1.806000000    -4.365000000
H     5.188000000    -2.317000000    -4.526000000
H     4.688000000    -0.896000000    -4.383000000
O     3.552000000    -0.717000000     2.931000000
H     2.934000000    -0.381000000     3.581000000
H     3.100000000    -1.462000000     2.534000000
O    -4.841000000    -2.108000000     2.555000000
H    -4.503000000    -2.197000000     3.447000000
H    -4.747000000    -1.177000000     2.355000000
O     4.935000000    -3.372000000    -1.168000000
H     5.032000000    -3.922000000    -1.946000000
H     4.443000000    -2.610000000    -1.474000000
O     1.235000000     4.242000000    -7.141000000
H     0.441000000     4.284000000    -6.608000000
H     0.936000000     4.432000000    -8.030000000
O    -1.624000000     2.758000000    -3.022000000
H    -1.768000000     3.285000000    -2.237000000
H    -0.850000000     2.232000000    -2.819000000
O    -6.847000000    -3.586000000     1.742000000
H    -6.805000000    -3.403000000     0.804000000
H    -6.029000000    -3.234000000     2.092000000
O     4.665000000     4.360000000    -3.754000000
H     4.235000000     5.195000000    -3.937000000
H     3.971000000     3.708000000    -3.844000000
O    -0.758000000     4.014000000    -5.294000000
H    -0.762000000     3.564000000    -4.449000000
H    -1.592000000     4.485000000    -5.318000000
O    -2.404000000     2.260000000     1.208000000
H    -2.079000000     1.384000000     1.000000000
H    -2.508000000     2.686000000     0.357000000
O     3.397000000     4.799000000    -1.246000000
H     3.460000000     3.864000000    -1.445000000
H     3.737000000     5.233000000    -2.028000000
O     5.092000000     1.560000000    -1.520000000
H     5.043000000     1.150000000    -0.656000000
H     4.190000000     1.551000000    -1.841000000
O    -0.263000000    -0.973000000    -6.875000000
H    -0.060000000    -1.214000000    -5.971000000
H     0.061000000    -0.077000000    -6.963000000
O     4.992000000     0.961000000    -4.480000000
H     4.130000000     1.372000000    -4.412000000
H     5.392000000     1.099000000    -3.622000000
O    -5.354000000    -3.960000000    -1.090000000
H    -4.633000000    -3.959000000    -0.460000000
H    -5.349000000    -4.843000000    -1.458000000
O    -0.031000000     3.871000000     2.269000000
H    -0.535000000     3.216000000     1.786000000
H     0.662000000     4.134000000     1.663000000
O    -3.208000000    -2.615000000     4.596000000
H    -3.205000000    -2.776000000     5.540000000
H    -2.517000000    -3.183000000     4.254000000
O     0.404000000     5.055000000    -2.212000000
H     0.950000000     4.822000000    -1.461000000
H    -0.338000000     5.524000000    -1.832000000
O    -1.466000000    -4.728000000     2.462000000
H    -0.656000000    -5.076000000     2.090000000
H    -1.422000000    -4.958000000     3.390000000
O     4.985000000     0.866000000     0.993000000
H     4.371000000     0.252000000     1.397000000
H     5.065000000     1.578000000     1.629000000
O     0.284000000     1.410000000    -6.038000000
H    -0.164000000     2.232000000    -6.238000000
H     0.341000000     1.396000000    -5.082000000
O     1.346000000    -4.775000000     1.559000000
H     1.505000000    -5.085000000     0.667000000
H     1.538000000    -3.837000000     1.523000000
O    -3.719000000     4.250000000     2.792000000
H    -2.949000000     4.205000000     3.358000000
H    -3.481000000     3.735000000     2.021000000
O    -1.133000000     1.672000000     5.380000000
H    -2.028000000     1.370000000     5.534000000
H    -0.819000000     1.129000000     4.657000000
O     3.009000000    -2.475000000     0.935000000
H     2.936000000    -1.697000000     0.383000000
H     3.065000000    -3.203000000     0.316000000
O    -2.572000000    -2.465000000    -3.979000000
H    -2.296000000    -3.280000000    -3.560000000
H    -1.760000000    -2.074000000    -4.300000000
O     1.552000000    -4.686000000     4.461000000
H     1.506000000    -4.631000000     3.506000000
H     2.455000000    -4.946000000     4.643000000
O     2.770000000     1.482000000    -8.098000000
H     2.023000000     2.063000000    -8.241000000
H     2.993000000     1.601000000    -7.175000000
O     2.492000000     4.935000000     1.357000000
H     2.587000000     5.886000000     1.303000000
H     2.859000000     4.610000000     0.535000000
O    -1.733000000    -6.191000000    -0.394000000
H    -1.499000000    -6.604000000     0.437000000
H    -1.984000000    -5.299000000    -0.156000000
O     3.183000000     2.788000000     2.845000000
H     2.790000000     3.505000000     2.348000000
H     2.674000000     2.751000000     3.655000000
O     6.957000000     3.809000000    -2.019000000
H     6.247000000     4.207000000    -2.522000000
H     6.658000000     2.916000000    -1.848000000
O     2.083000000     5.745000000    -4.347000000
H     1.303000000     5.337000000    -3.971000000
H     2.050000000     6.652000000    -4.042000000
O    -4.197000000    -0.618000000    -3.238000000
H    -5.049000000    -1.047000000    -3.313000000
H    -3.564000000    -1.335000000    -3.281000000
O    -4.822000000     1.383000000    -1.009000000
H    -5.751000000     1.189000000    -0.887000000
H    -4.538000000     0.776000000    -1.693000000
O    -3.577000000     1.853000000    -4.537000000
H    -3.950000000     1.058000000    -4.155000000
H    -2.952000000     2.163000000    -3.882000000
O    -4.156000000     2.885000000     5.377000000
H    -5.014000000     3.186000000     5.678000000
H    -4.261000000     1.941000000     5.259000000
O    -1.458000000    -4.806000000     5.352000000
H    -1.674000000    -4.693000000     6.278000000
H    -0.519000000    -4.629000000     5.302000000
