161
-3012.89763
C     1.125000000    -0.915000000     0.480000000
H     1.793000000    -1.649000000     0.922000000
C     0.039000000    -0.488000000     1.289000000
H    -0.187000000    -0.845000000     2.291000000
C    -0.959000000     0.292000000     0.701000000
C    -2.156000000     0.949000000     1.419000000
H    -2.000000000     1.957000000     1.808000000
H    -3.008000000     1.099000000     0.751000000
H    -2.479000000     0.467000000     2.344000000
C    -0.821000000     0.758000000    -0.639000000
H    -1.508000000     1.447000000    -1.124000000
C     0.269000000     0.264000000    -1.362000000
H     0.407000000     0.609000000    -2.383000000
C     1.321000000    -0.447000000    -0.823000000
C     2.471000000    -0.974000000    -1.667000000
O     2.745000000    -0.533000000    -2.776000000
O     2.948000000    -1.999000000    -1.239000000
O     5.832000000     1.238000000    -3.584000000
H     5.493000000     0.464000000    -4.033000000
H     6.658000000     1.430000000    -4.029000000
O    -3.447000000     3.831000000     3.764000000
H    -4.332000000     3.529000000     3.968000000
H    -3.549000000     4.351000000     2.967000000
O     1.511000000    -3.609000000     6.086000000
H     1.044000000    -3.911000000     5.308000000
H     1.730000000    -2.697000000     5.896000000
O     2.052000000    -4.314000000    -0.152000000
H     2.227000000    -3.407000000    -0.403000000
H     2.849000000    -4.787000000    -0.392000000
O     0.501000000     5.414000000    -2.225000000
H    -0.326000000     4.933000000    -2.242000000
H     0.544000000     5.846000000    -3.078000000
O    -7.678000000    -0.141000000     1.951000000
H    -6.816000000    -0.032000000     1.550000000
H    -7.932000000     0.743000000     2.217000000
O     2.805000000    -4.660000000    -3.158000000
H     3.757000000    -4.664000000    -3.257000000
H     2.606000000    -3.800000000    -2.786000000
O     1.214000000     2.605000000     0.968000000
H     1.262000000     1.902000000     0.320000000
H     1.369000000     2.169000000     1.806000000
O     4.110000000    -6.278000000    -1.231000000
H     4.967000000    -6.600000000    -0.952000000
H     3.549000000    -7.055000000    -1.224000000
O    -5.996000000     2.969000000     3.829000000
H    -6.071000000     2.150000000     4.319000000
H    -6.891000000     3.166000000     3.553000000
O     4.480000000     4.636000000    -2.339000000
H     3.968000000     3.833000000    -2.246000000
H     5.348000000     4.407000000    -2.005000000
O     4.119000000    -0.369000000    -4.880000000
H     3.439000000    -0.425000000    -4.209000000
H     3.637000000    -0.261000000    -5.700000000
O    -2.277000000     5.867000000    -2.766000000
H    -2.749000000     5.039000000    -2.858000000
H    -2.700000000     6.454000000    -3.392000000
O    -0.490000000     4.969000000     3.375000000
H     0.019000000     4.381000000     2.817000000
H    -1.221000000     4.434000000     3.684000000
O    -1.615000000     2.792000000     5.866000000
H    -1.937000000     2.953000000     6.753000000
H    -2.338000000     3.055000000     5.297000000
O     4.637000000    -2.669000000     0.996000000
H     4.438000000    -1.936000000     1.578000000
H     4.120000000    -2.499000000     0.209000000
O     0.465000000    -3.327000000     3.649000000
H     0.021000000    -4.103000000     3.308000000
H     1.392000000    -3.484000000     3.470000000
O     5.593000000    -1.593000000    -2.408000000
H     4.660000000    -1.378000000    -2.414000000
H     5.620000000    -2.544000000    -2.508000000
O     7.443000000    -2.130000000     0.036000000
H     7.731000000    -2.997000000    -0.249000000
H     6.666000000    -1.950000000    -0.493000000
O     2.232000000    -0.556000000    -6.900000000
H     1.847000000    -1.404000000    -7.123000000
H     2.558000000    -0.215000000    -7.733000000
O     3.765000000     2.055000000    -2.262000000
H     3.101000000     1.368000000    -2.195000000
H     4.464000000     1.662000000    -2.783000000
O    -3.416000000    -2.974000000    -2.554000000
H    -3.190000000    -2.601000000    -1.702000000
H    -2.744000000    -2.641000000    -3.149000000
O    -4.784000000    -0.078000000     3.671000000
H    -5.538000000     0.115000000     4.228000000
H    -4.147000000    -0.481000000     4.261000000
O     0.307000000     0.699000000     4.656000000
H    -0.278000000    -0.059000000     4.690000000
H    -0.131000000     1.363000000     5.188000000
O     0.453000000    -1.607000000    -4.097000000
H     0.308000000    -1.205000000    -4.954000000
H     1.274000000    -1.223000000    -3.789000000
O     0.713000000     1.560000000    -6.443000000
H     1.132000000     2.286000000    -6.905000000
H     1.318000000     0.826000000    -6.552000000
O    -7.679000000     3.100000000    -0.988000000
H    -7.188000000     2.421000000    -0.525000000
H    -7.319000000     3.093000000    -1.875000000
O    -2.148000000    -2.148000000    -0.289000000
H    -1.935000000    -2.090000000     0.643000000
H    -1.351000000    -1.862000000    -0.735000000
O     4.111000000     2.877000000    -5.210000000
H     4.085000000     2.385000000    -4.390000000
H     3.465000000     3.573000000    -5.093000000
O    -2.463000000    -2.214000000     2.507000000
H    -2.978000000    -2.817000000     3.042000000
H    -1.780000000    -1.893000000     3.096000000
O     0.925000000    -6.448000000     0.153000000
H     1.214000000    -6.650000000     1.043000000
H     1.273000000    -5.574000000    -0.020000000
O    -3.531000000     5.499000000     1.429000000
H    -2.751000000     5.738000000     0.928000000
H    -3.869000000     4.719000000     0.990000000
O     5.054000000    -3.201000000    -5.452000000
H     5.392000000    -3.710000000    -4.715000000
H     4.862000000    -2.341000000    -5.080000000
O    -5.719000000     0.699000000    -0.342000000
H    -5.368000000    -0.101000000     0.049000000
H    -5.798000000     0.495000000    -1.274000000
O    -3.148000000     0.475000000    -4.065000000
H    -3.523000000     0.808000000    -4.881000000
H    -2.240000000     0.269000000    -4.285000000
O    -1.229000000    -0.518000000    -6.220000000
H    -1.847000000    -0.722000000    -6.921000000
H    -0.790000000     0.281000000    -6.512000000
O     2.485000000     1.235000000     2.814000000
H     1.855000000     0.902000000     3.453000000
H     2.991000000     1.890000000     3.295000000
O     1.968000000     4.936000000    -0.082000000
H     1.762000000     4.951000000    -1.016000000
H     1.688000000     4.069000000     0.211000000
O    -4.380000000     3.193000000    -0.046000000
H    -4.218000000     2.303000000    -0.358000000
H    -4.364000000     3.731000000    -0.837000000
O    -5.761000000    -0.425000000    -2.820000000
H    -4.882000000    -0.608000000    -3.152000000
H    -6.176000000     0.090000000    -3.512000000
O     2.439000000    -0.899000000     5.937000000
H     1.898000000    -0.270000000     5.459000000
H     3.302000000    -0.832000000     5.528000000
O     4.488000000    -0.795000000     3.079000000
H     3.791000000    -0.186000000     2.836000000
H     5.288000000    -0.391000000     2.743000000
O    -4.285000000     3.822000000    -2.784000000
H    -3.909000000     2.942000000    -2.778000000
H    -5.227000000     3.680000000    -2.871000000
O    -1.169000000    -1.614000000     4.810000000
H    -0.576000000    -2.275000000     4.453000000
H    -1.381000000    -1.932000000     5.688000000
O    -4.600000000    -1.429000000     1.049000000
H    -3.880000000    -2.050000000     1.155000000
H    -4.526000000    -0.845000000     1.805000000
O     5.758000000    -4.328000000    -2.930000000
H     6.452000000    -4.185000000    -2.287000000
H     5.352000000    -5.153000000    -2.665000000
O     2.874000000    -4.022000000     2.758000000
H     2.707000000    -4.666000000     2.070000000
H     3.754000000    -3.696000000     2.572000000
O    -5.933000000    -2.532000000     4.339000000
H    -6.810000000    -2.196000000     4.157000000
H    -5.344000000    -1.903000000     3.922000000
