161
-3046.34498
C     0.907000000     0.363000000    -1.037000000
H     1.507000000     0.718000000    -1.871000000
C     0.475000000     1.245000000    -0.079000000
H     0.849000000     2.266000000    -0.110000000
C    -0.431000000     0.779000000     0.879000000
C    -0.692000000     1.647000000     2.107000000
H    -1.148000000     2.633000000     2.000000000
H    -1.355000000     1.057000000     2.744000000
H     0.186000000     1.790000000     2.739000000
C    -0.985000000    -0.455000000     0.675000000
H    -1.788000000    -0.832000000     1.302000000
C    -0.562000000    -1.333000000    -0.335000000
H    -0.973000000    -2.318000000    -0.538000000
C     0.469000000    -0.959000000    -1.183000000
C     0.986000000    -1.905000000    -2.206000000
O     0.388000000    -2.845000000    -2.681000000
O     2.160000000    -1.851000000    -2.414000000
O     3.049000000     2.352000000     3.068000000
H     2.345000000     2.175000000     3.692000000
H     3.511000000     1.518000000     2.985000000
O    -6.807000000     1.307000000     2.166000000
H    -6.803000000     1.396000000     1.213000000
H    -5.882000000     1.296000000     2.410000000
O    -3.401000000     4.172000000     1.106000000
H    -2.562000000     4.628000000     1.056000000
H    -3.616000000     4.164000000     2.038000000
O    -6.329000000    -1.315000000     3.655000000
H    -6.587000000    -0.603000000     3.071000000
H    -5.377000000    -1.238000000     3.721000000
O     4.946000000    -3.703000000    -3.194000000
H     5.727000000    -4.115000000    -2.824000000
H     4.801000000    -2.931000000    -2.647000000
O    -4.271000000    -1.091000000    -4.328000000
H    -3.601000000    -1.236000000    -3.659000000
H    -4.958000000    -1.723000000    -4.119000000
O     1.993000000    -6.700000000    -4.823000000
H     1.817000000    -5.860000000    -4.400000000
H     2.926000000    -6.671000000    -5.035000000
O     4.690000000     1.342000000    -6.245000000
H     5.068000000     2.002000000    -5.664000000
H     4.159000000     0.792000000    -5.668000000
O     4.663000000    -1.186000000    -1.776000000
H     4.666000000    -0.243000000    -1.936000000
H     3.779000000    -1.467000000    -2.016000000
O     3.701000000     3.369000000     6.357000000
H     3.471000000     4.010000000     7.030000000
H     2.862000000     3.112000000     5.974000000
O     3.900000000     0.062000000     0.981000000
H     4.777000000     0.298000000     0.679000000
H     3.459000000     0.900000000     1.116000000
O    -4.309000000     4.020000000     3.866000000
H    -4.391000000     4.902000000     4.231000000
H    -4.685000000     3.448000000     4.535000000
O    -5.007000000     1.717000000     5.736000000
H    -5.854000000     1.420000000     6.071000000
H    -4.749000000     1.044000000     5.106000000
O    -0.423000000     5.321000000     1.960000000
H    -0.099000000     6.212000000     2.089000000
H     0.356000000     4.812000000     1.736000000
O     3.161000000    -0.377000000    -4.485000000
H     2.929000000    -0.925000000    -3.736000000
H     2.402000000    -0.432000000    -5.066000000
O    -3.076000000    -3.725000000    -0.807000000
H    -2.294000000    -4.247000000    -0.629000000
H    -3.805000000    -4.320000000    -0.635000000
O    -0.346000000     2.110000000    -4.120000000
H     0.097000000     1.272000000    -3.988000000
H    -1.275000000     1.910000000    -4.008000000
O     3.315000000    -2.883000000     0.383000000
H     4.003000000    -2.546000000     0.957000000
H     2.944000000    -2.103000000    -0.029000000
O    -5.204000000     0.096000000    -0.737000000
H    -4.480000000     0.699000000    -0.905000000
H    -4.853000000    -0.530000000    -0.104000000
O    -0.477000000    -1.047000000     6.832000000
H     0.235000000    -0.683000000     6.307000000
H    -0.838000000    -1.750000000     6.292000000
O     2.454000000     4.230000000    -4.834000000
H     2.164000000     3.802000000    -5.640000000
H     1.696000000     4.183000000    -4.252000000
O    -1.713000000     2.619000000     5.352000000
H    -1.491000000     3.537000000     5.511000000
H    -1.717000000     2.219000000     6.221000000
O     2.441000000    -4.243000000    -4.078000000
H     3.340000000    -3.930000000    -4.176000000
H     1.982000000    -3.521000000    -3.649000000
O    -4.308000000    -1.942000000     0.784000000
H    -5.016000000    -2.529000000     1.050000000
H    -3.855000000    -2.414000000     0.085000000
O     5.243000000     1.502000000    -1.403000000
H     4.367000000     1.864000000    -1.536000000
H     5.791000000     1.960000000    -2.039000000
O     1.266000000     1.994000000     5.449000000
H     0.343000000     2.032000000     5.197000000
H     1.432000000     1.064000000     5.607000000
O     3.307000000    -5.099000000    -1.434000000
H     3.641000000    -4.861000000    -2.299000000
H     3.298000000    -4.276000000    -0.946000000
O    -3.608000000    -1.706000000     3.296000000
H    -3.653000000    -1.788000000     2.343000000
H    -2.828000000    -2.205000000     3.542000000
O     1.271000000    -0.652000000     4.922000000
H     1.214000000    -0.723000000     3.969000000
H     2.011000000    -1.209000000     5.161000000
O     6.816000000    -1.294000000     0.070000000
H     6.142000000    -1.204000000    -0.603000000
H     6.749000000    -2.206000000     0.356000000
O    -3.378000000     1.958000000    -0.511000000
H    -2.533000000     1.538000000    -0.352000000
H    -3.414000000     2.671000000     0.126000000
O    -0.782000000    -4.992000000     0.360000000
H    -0.169000000    -5.446000000    -0.217000000
H    -0.231000000    -4.613000000     1.044000000
O     4.329000000     3.299000000     0.899000000
H     4.042000000     3.121000000     1.795000000
H     5.283000000     3.343000000     0.957000000
O    -0.091000000    -2.210000000    -5.410000000
H    -0.883000000    -2.332000000    -5.933000000
H    -0.239000000    -2.736000000    -4.624000000
O    -0.787000000     5.158000000     4.626000000
H    -0.035000000     5.730000000     4.778000000
H    -0.681000000     4.857000000     3.724000000
O     1.411000000    -4.346000000     1.579000000
H     2.212000000    -3.964000000     1.220000000
H     1.452000000    -4.151000000     2.516000000
O    -2.713000000     4.349000000    -2.083000000
H    -3.082000000     4.093000000    -1.238000000
H    -3.068000000     5.223000000    -2.244000000
O     1.756000000    -0.995000000     2.411000000
H     1.078000000    -1.141000000     1.751000000
H     2.578000000    -1.035000000     1.923000000
O     2.288000000    -2.636000000    -7.189000000
H     1.780000000    -2.597000000    -6.378000000
H     1.632000000    -2.581000000    -7.884000000
O     3.776000000     5.802000000     0.014000000
H     3.907000000     4.961000000     0.451000000
H     2.862000000     6.024000000     0.192000000
O     0.549000000     4.262000000    -2.770000000
H     0.339000000     3.459000000    -3.247000000
H    -0.286000000     4.542000000    -2.394000000
O    -1.101000000    -7.640000000    -2.750000000
H    -0.529000000    -6.886000000    -2.893000000
H    -1.476000000    -7.495000000    -1.881000000
O     1.132000000     0.092000000    -6.344000000
H     0.441000000     0.708000000    -6.585000000
H     0.687000000    -0.753000000    -6.279000000
O    -2.503000000    -2.189000000    -2.782000000
H    -2.756000000    -2.790000000    -2.081000000
H    -1.555000000    -2.295000000    -2.857000000
O    -4.044000000     0.987000000     2.799000000
H    -3.500000000     0.201000000     2.757000000
H    -3.463000000     1.661000000     3.152000000
O     2.273000000     6.610000000    -2.660000000
H     1.361000000     6.883000000    -2.559000000
H     2.247000000     5.656000000    -2.582000000
O     5.415000000    -3.409000000    -5.723000000
H     5.274000000    -3.642000000    -4.805000000
H     4.721000000    -2.780000000    -5.919000000
O     0.606000000    -5.506000000    -2.066000000
H     1.556000000    -5.517000000    -1.953000000
H     0.393000000    -4.584000000    -2.211000000
