161
-3029.89151
C     1.342000000    -0.785000000    -0.289000000
H     2.264000000    -1.300000000    -0.546000000
C     0.791000000     0.379000000    -0.949000000
H     1.377000000     0.814000000    -1.755000000
C    -0.399000000     0.945000000    -0.693000000
C    -0.945000000     2.122000000    -1.465000000
H    -1.362000000     1.701000000    -2.382000000
H    -1.610000000     2.829000000    -0.964000000
H    -0.148000000     2.812000000    -1.749000000
C    -1.190000000     0.395000000     0.331000000
H    -2.133000000     0.882000000     0.566000000
C    -0.739000000    -0.622000000     1.130000000
H    -1.318000000    -1.028000000     1.956000000
C     0.511000000    -1.241000000     0.803000000
C     1.043000000    -2.272000000     1.814000000
O     0.348000000    -2.930000000     2.509000000
O     2.164000000    -2.701000000     1.684000000
O     5.266000000    -2.137000000    -0.756000000
H     6.023000000    -2.614000000    -1.096000000
H     4.718000000    -2.811000000    -0.356000000
O     0.226000000     6.460000000    -5.676000000
H     0.356000000     5.898000000    -4.912000000
H     0.837000000     7.185000000    -5.548000000
O     3.392000000    -3.900000000    -0.248000000
H     3.167000000    -4.828000000    -0.315000000
H     2.758000000    -3.545000000     0.374000000
O    -0.308000000    -7.669000000     1.766000000
H    -0.262000000    -6.789000000     1.393000000
H    -0.829000000    -8.168000000     1.136000000
O     4.586000000    -5.780000000     4.991000000
H     3.870000000    -5.366000000     4.511000000
H     4.323000000    -5.723000000     5.910000000
O     5.494000000     0.781000000    -2.187000000
H     5.797000000    -0.082000000    -1.906000000
H     4.875000000     1.050000000    -1.508000000
O     4.151000000    -0.106000000    -4.367000000
H     4.042000000    -1.054000000    -4.293000000
H     4.614000000     0.145000000    -3.568000000
O    -4.424000000     3.798000000     1.078000000
H    -5.225000000     4.321000000     1.079000000
H    -4.708000000     2.923000000     1.343000000
O    -1.861000000     3.057000000     2.458000000
H    -2.634000000     3.382000000     1.996000000
H    -2.167000000     2.272000000     2.914000000
O    -2.177000000     5.137000000     0.162000000
H    -2.633000000     5.933000000     0.435000000
H    -2.845000000     4.453000000     0.201000000
O     1.108000000     5.252000000    -3.393000000
H     1.576000000     4.424000000    -3.285000000
H     0.360000000     5.185000000    -2.800000000
O     3.957000000    -0.975000000     1.644000000
H     3.277000000    -1.644000000     1.563000000
H     4.622000000    -1.230000000     1.004000000
O     0.277000000     6.023000000     0.465000000
H    -0.586000000     5.648000000     0.644000000
H     0.841000000     5.265000000     0.316000000
O    -0.352000000    -5.099000000     1.270000000
H    -1.099000000    -4.799000000     0.752000000
H    -0.115000000    -4.345000000     1.810000000
O     1.772000000    -3.643000000    -2.463000000
H     1.976000000    -3.789000000    -1.540000000
H     1.719000000    -4.522000000    -2.839000000
O    -1.292000000    -3.164000000     4.413000000
H    -1.834000000    -3.912000000     4.163000000
H    -0.821000000    -2.932000000     3.612000000
O     2.094000000    -5.185000000     3.186000000
H     1.732000000    -4.484000000     2.643000000
H     2.316000000    -5.879000000     2.565000000
O    -4.799000000    -4.335000000     1.653000000
H    -4.564000000    -4.167000000     2.565000000
H    -5.668000000    -4.735000000     1.701000000
O    -0.040000000     2.036000000     5.309000000
H     0.511000000     2.166000000     4.537000000
H    -0.539000000     2.849000000     5.387000000
O    -6.406000000    -0.072000000    -0.992000000
H    -6.865000000    -0.842000000    -0.656000000
H    -6.869000000     0.150000000    -1.800000000
O    -2.659000000    -4.140000000     0.025000000
H    -2.744000000    -3.207000000    -0.172000000
H    -3.516000000    -4.391000000     0.370000000
O    -1.080000000    -3.517000000    -3.377000000
H    -1.430000000    -2.655000000    -3.150000000
H    -0.151000000    -3.464000000    -3.154000000
O    -4.714000000     3.453000000    -2.813000000
H    -4.406000000     3.843000000    -3.631000000
H    -3.920000000     3.137000000    -2.384000000
O     0.168000000    -2.330000000     6.566000000
H    -0.345000000    -2.573000000     5.796000000
H     0.105000000    -3.090000000     7.145000000
O    -5.490000000     6.225000000    -2.408000000
H    -4.924000000     6.934000000    -2.714000000
H    -4.917000000     5.460000000    -2.369000000
O     2.265000000    -2.804000000     4.814000000
H     1.615000000    -2.674000000     5.505000000
H     1.752000000    -3.065000000     4.049000000
O    -1.975000000     2.934000000    -5.015000000
H    -1.144000000     3.247000000    -4.655000000
H    -1.722000000     2.385000000    -5.757000000
O    -3.184000000     5.204000000    -4.421000000
H    -2.868000000     4.346000000    -4.704000000
H    -3.384000000     5.667000000    -5.235000000
O     4.880000000     4.186000000    -3.645000000
H     4.257000000     3.776000000    -3.045000000
H     4.727000000     3.751000000    -4.484000000
O     1.315000000     3.470000000    -6.157000000
H     0.992000000     3.456000000    -7.058000000
H     1.835000000     4.272000000    -6.102000000
O     6.115000000    -6.034000000     0.782000000
H     6.922000000    -5.695000000     0.393000000
H     5.766000000    -5.300000000     1.287000000
O    -0.371000000    -0.713000000    -4.508000000
H     0.178000000     0.057000000    -4.362000000
H    -0.391000000    -0.816000000    -5.460000000
O     2.738000000     3.015000000    -2.383000000
H     2.415000000     2.279000000    -2.904000000
H     2.307000000     2.915000000    -1.534000000
O     3.837000000    -0.710000000     4.362000000
H     3.278000000    -1.487000000     4.359000000
H     4.079000000    -0.585000000     3.445000000
O     5.458000000    -3.662000000     2.549000000
H     4.522000000    -3.832000000     2.444000000
H     5.499000000    -2.864000000     3.077000000
O     2.179000000    -6.901000000     0.605000000
H     2.865000000    -7.320000000     0.086000000
H     1.373000000    -7.069000000     0.117000000
O    -5.631000000     1.294000000     1.289000000
H    -5.923000000     0.999000000     0.426000000
H    -6.178000000     0.807000000     1.906000000
O    -3.690000000     0.577000000    -3.849000000
H    -3.523000000     1.455000000    -4.190000000
H    -2.921000000     0.069000000    -4.108000000
O     1.902000000     1.270000000    -4.781000000
H     2.748000000     0.846000000    -4.923000000
H     1.947000000     2.074000000    -5.299000000
O    -4.069000000    -1.683000000    -2.249000000
H    -4.444000000    -1.363000000    -1.429000000
H    -4.063000000    -0.918000000    -2.824000000
O     4.185000000     1.227000000     0.185000000
H     4.129000000     0.571000000     0.880000000
H     4.264000000     2.061000000     0.649000000
O    -1.360000000     5.106000000    -2.368000000
H    -2.142000000     5.105000000    -2.920000000
H    -1.688000000     5.291000000    -1.488000000
O     1.723000000     3.733000000     0.265000000
H     1.258000000     2.965000000     0.598000000
H     2.324000000     3.972000000     0.971000000
O     1.213000000     2.066000000     2.869000000
H     0.456000000     2.359000000     2.363000000
H     1.124000000     1.113000000     2.904000000
O    -3.392000000    -5.136000000     3.897000000
H    -3.045000000    -5.984000000     3.617000000
H    -4.317000000    -5.304000000     4.077000000
O     0.996000000    -5.943000000     5.585000000
H     1.806000000    -6.420000000     5.401000000
H     0.864000000    -5.389000000     4.816000000
O    -4.038000000    -3.261000000     5.900000000
H    -3.239000000    -3.226000000     5.374000000
H    -4.749000000    -3.213000000     5.260000000
O     3.192000000    -2.604000000    -4.550000000
H     2.869000000    -3.105000000    -3.801000000
H     2.548000000    -1.906000000    -4.669000000
