161
-3028.08804
C    -0.060000000    -0.167000000    -1.455000000
H     0.081000000    -0.359000000    -2.516000000
C     0.949000000     0.456000000    -0.772000000
H     1.753000000     0.844000000    -1.393000000
C     0.870000000     0.548000000     0.589000000
C     1.934000000     1.385000000     1.307000000
H     2.843000000     0.804000000     1.477000000
H     2.244000000     2.226000000     0.683000000
H     1.583000000     1.782000000     2.261000000
C    -0.223000000     0.055000000     1.330000000
H    -0.281000000     0.259000000     2.396000000
C    -1.249000000    -0.580000000     0.579000000
H    -2.077000000    -0.929000000     1.190000000
C    -1.133000000    -0.807000000    -0.797000000
C    -2.121000000    -1.639000000    -1.462000000
O    -3.025000000    -2.078000000    -0.744000000
O    -2.093000000    -1.797000000    -2.672000000
O     3.956000000     3.927000000    -5.665000000
H     3.676000000     3.610000000    -4.807000000
H     3.204000000     4.417000000    -5.997000000
O    -5.091000000    -6.177000000     2.433000000
H    -4.699000000    -5.305000000     2.481000000
H    -5.629000000    -6.242000000     3.222000000
O    -6.685000000    -3.926000000    -1.456000000
H    -6.144000000    -4.353000000    -0.791000000
H    -7.335000000    -3.432000000    -0.956000000
O    -0.989000000     2.715000000    -2.268000000
H    -0.672000000     3.119000000    -1.460000000
H    -0.772000000     1.788000000    -2.174000000
O    -1.937000000    -6.864000000     0.780000000
H    -2.521000000    -6.129000000     0.593000000
H    -1.163000000    -6.699000000     0.242000000
O     0.160000000    -3.240000000    -2.999000000
H     0.236000000    -3.094000000    -3.942000000
H    -0.753000000    -3.033000000    -2.798000000
O     2.972000000    -2.343000000    -2.473000000
H     2.936000000    -1.446000000    -2.805000000
H     2.056000000    -2.612000000    -2.408000000
O    -1.482000000    -6.636000000    -3.772000000
H    -1.746000000    -7.525000000    -4.010000000
H    -2.304000000    -6.149000000    -3.718000000
O     3.214000000     6.602000000     1.447000000
H     2.658000000     7.355000000     1.247000000
H     4.056000000     6.812000000     1.043000000
O    -3.563000000     2.318000000    -3.587000000
H    -2.783000000     2.555000000    -3.085000000
H    -3.292000000     1.563000000    -4.108000000
O    -6.666000000    -3.456000000     2.236000000
H    -6.251000000    -2.831000000     1.642000000
H    -5.961000000    -3.736000000     2.820000000
O    -4.055000000    -4.016000000     3.279000000
H    -3.824000000    -3.953000000     4.206000000
H    -3.238000000    -3.837000000     2.815000000
O     2.578000000     4.342000000    -1.168000000
H     1.644000000     4.255000000    -0.974000000
H     2.939000000     4.796000000    -0.407000000
O     1.111000000    -2.594000000     1.592000000
H     1.722000000    -3.265000000     1.288000000
H     1.122000000    -1.930000000     0.903000000
O    -3.328000000    -3.374000000    -4.387000000
H    -3.470000000    -4.191000000    -3.909000000
H    -3.051000000    -2.749000000    -3.716000000
O     6.300000000     3.343000000    -0.274000000
H     6.465000000     2.904000000     0.561000000
H     6.211000000     4.268000000    -0.044000000
O     2.739000000     2.165000000     5.542000000
H     3.226000000     1.474000000     5.990000000
H     3.152000000     2.229000000     4.681000000
O     4.414000000    -0.817000000     3.038000000
H     3.821000000    -1.380000000     3.534000000
H     5.284000000    -1.026000000     3.379000000
O    -1.935000000     3.728000000     4.691000000
H    -1.872000000     2.773000000     4.669000000
H    -1.037000000     4.030000000     4.556000000
O    -5.193000000    -2.920000000    -6.392000000
H    -4.893000000    -2.998000000    -7.298000000
H    -4.418000000    -3.118000000    -5.866000000
O    -0.331000000     3.773000000     0.485000000
H    -0.983000000     4.211000000     1.032000000
H     0.044000000     3.100000000     1.052000000
O     0.915000000    -5.834000000    -3.175000000
H     0.164000000    -6.299000000    -3.543000000
H     0.636000000    -4.919000000    -3.138000000
O    -5.215000000    -0.869000000    -1.830000000
H    -4.293000000    -1.061000000    -1.656000000
H    -5.508000000    -1.590000000    -2.389000000
O     3.782000000     2.955000000    -3.151000000
H     4.656000000     2.978000000    -2.760000000
H     3.222000000     3.395000000    -2.512000000
O    -5.358000000     1.739000000    -0.692000000
H    -5.703000000     0.956000000    -1.121000000
H    -4.408000000     1.659000000    -0.774000000
O    -2.759000000     0.910000000     4.916000000
H    -2.454000000     0.003000000     4.926000000
H    -3.198000000     1.025000000     5.759000000
O     2.380000000    -2.196000000     4.132000000
H     2.190000000    -2.111000000     3.197000000
H     1.542000000    -2.440000000     4.525000000
O     1.427000000    -1.100000000    -7.088000000
H     0.699000000    -0.499000000    -6.933000000
H     2.207000000    -0.598000000    -6.849000000
O     6.251000000     0.505000000    -3.112000000
H     6.659000000     1.339000000    -2.881000000
H     6.884000000    -0.157000000    -2.833000000
O     5.090000000    -2.823000000     0.668000000
H     4.821000000    -3.462000000     1.328000000
H     4.734000000    -1.992000000     0.980000000
O     4.278000000     4.375000000     3.349000000
H     3.979000000     4.951000000     2.645000000
H     4.733000000     3.663000000     2.900000000
O    -1.562000000    -3.457000000     1.882000000
H    -0.687000000    -3.141000000     1.655000000
H    -1.820000000    -4.003000000     1.139000000
O     0.143000000    -0.277000000     5.979000000
H    -0.133000000     0.625000000     6.144000000
H     1.096000000    -0.225000000     5.904000000
O    -1.847000000    -1.943000000     4.416000000
H    -1.865000000    -2.354000000     3.552000000
H    -0.916000000    -1.823000000     4.606000000
O    -3.145000000    -4.635000000    -0.224000000
H    -3.271000000    -4.787000000    -1.161000000
H    -3.088000000    -3.683000000    -0.141000000
O    -3.010000000    -0.166000000    -4.541000000
H    -3.702000000    -0.613000000    -5.028000000
H    -2.766000000    -0.783000000    -3.851000000
O    -1.154000000     0.715000000    -6.689000000
H    -1.499000000     0.462000000    -5.833000000
H    -1.614000000     0.150000000    -7.309000000
O    -0.312000000    -4.524000000     4.119000000
H    -0.288000000    -4.505000000     3.162000000
H    -0.900000000    -5.248000000     4.330000000
O     5.127000000     1.910000000     2.478000000
H     4.885000000     0.985000000     2.429000000
H     5.704000000     1.966000000     3.240000000
O     0.434000000     5.242000000     3.508000000
H     1.332000000     5.076000000     3.223000000
H     0.473000000     6.096000000     3.940000000
O    -5.188000000    -1.523000000     1.075000000
H    -5.519000000    -0.669000000     0.795000000
H    -4.456000000    -1.701000000     0.484000000
O     0.385000000    -3.113000000    -5.748000000
H     0.733000000    -2.354000000    -6.215000000
H     1.050000000    -3.792000000    -5.867000000
O     3.556000000     0.229000000    -2.875000000
H     3.448000000     1.179000000    -2.814000000
H     4.503000000     0.094000000    -2.839000000
O    -2.080000000    -4.064000000    -6.677000000
H    -1.235000000    -3.750000000    -6.355000000
H    -2.681000000    -3.929000000    -5.944000000
O    -4.053000000    -5.786000000    -3.093000000
H    -4.919000000    -5.518000000    -3.399000000
H    -4.228000000    -6.456000000    -2.433000000
O     0.310000000     2.633000000     6.695000000
H     1.037000000     2.692000000     6.075000000
H     0.730000000     2.479000000     7.541000000
O    -5.042000000    -1.427000000     4.044000000
H    -4.114000000    -1.574000000     4.226000000
H    -5.077000000    -1.251000000     3.104000000
O    -0.510000000     6.923000000    -0.016000000
H    -0.436000000     5.971000000     0.049000000
H    -0.906000000     7.190000000     0.814000000
