161
-3065.42672
C     0.817000000    -1.000000000    -0.701000000
H     1.449000000    -1.594000000    -1.356000000
C     1.319000000     0.052000000     0.048000000
H     2.396000000     0.150000000    -0.062000000
C     0.489000000     0.887000000     0.743000000
C     1.002000000     2.168000000     1.285000000
H     1.934000000     1.975000000     1.820000000
H     1.286000000     2.876000000     0.503000000
H     0.267000000     2.647000000     1.935000000
C    -0.930000000     0.724000000     0.696000000
H    -1.659000000     1.391000000     1.149000000
C    -1.425000000    -0.340000000    -0.117000000
H    -2.495000000    -0.528000000    -0.089000000
C    -0.573000000    -1.263000000    -0.742000000
C    -1.148000000    -2.458000000    -1.452000000
O    -2.330000000    -2.471000000    -1.680000000
O    -0.402000000    -3.224000000    -1.984000000
O     2.585000000     3.501000000     4.216000000
H     3.417000000     3.067000000     4.026000000
H     1.927000000     2.814000000     4.112000000
O    -1.203000000     4.085000000    -0.417000000
H    -0.398000000     3.571000000    -0.482000000
H    -1.564000000     4.078000000    -1.304000000
O    -4.098000000    -6.660000000    -2.777000000
H    -3.839000000    -7.579000000    -2.845000000
H    -3.336000000    -6.173000000    -3.093000000
O     7.386000000     2.379000000    -0.267000000
H     7.461000000     3.206000000     0.210000000
H     6.511000000     2.057000000    -0.051000000
O     2.110000000    -4.663000000    -1.460000000
H     2.252000000    -4.595000000    -2.404000000
H     1.247000000    -4.272000000    -1.318000000
O     1.855000000    -4.453000000     1.449000000
H     1.435000000    -5.279000000     1.691000000
H     2.142000000    -4.586000000     0.546000000
O     0.584000000    -2.260000000     2.263000000
H     0.506000000    -1.696000000     1.494000000
H     1.037000000    -3.040000000     1.944000000
O    -7.171000000    -1.480000000     0.836000000
H    -6.628000000    -0.794000000     0.450000000
H    -6.865000000    -2.288000000     0.426000000
O     2.981000000     5.827000000     2.935000000
H     2.839000000     4.929000000     3.234000000
H     3.927000000     5.889000000     2.802000000
O    -0.379000000     6.257000000     0.507000000
H     0.525000000     6.304000000     0.194000000
H    -0.659000000     5.366000000     0.297000000
O    -1.920000000    -5.378000000     2.515000000
H    -2.818000000    -5.634000000     2.722000000
H    -1.981000000    -4.452000000     2.284000000
O     5.149000000     0.168000000    -2.894000000
H     5.892000000     0.769000000    -2.843000000
H     5.145000000    -0.279000000    -2.047000000
O    -5.121000000     4.256000000    -1.125000000
H    -4.169000000     4.239000000    -1.227000000
H    -5.293000000     5.056000000    -0.627000000
O    -6.033000000    -3.187000000    -1.104000000
H    -6.057000000    -3.678000000    -1.925000000
H    -5.393000000    -3.652000000    -0.566000000
O    -5.446000000    -5.956000000    -0.667000000
H    -4.764000000    -6.124000000    -1.317000000
H    -5.026000000    -5.391000000    -0.019000000
O    -1.687000000    -5.590000000    -3.093000000
H    -1.471000000    -5.958000000    -2.236000000
H    -1.392000000    -4.681000000    -3.044000000
O     2.428000000     2.857000000    -4.107000000
H     1.763000000     3.495000000    -4.366000000
H     2.159000000     2.572000000    -3.233000000
O    -2.729000000    -0.566000000    -5.457000000
H    -3.546000000    -0.776000000    -5.909000000
H    -2.148000000    -0.248000000    -6.148000000
O    -1.780000000    -7.102000000    -5.449000000
H    -1.693000000    -6.633000000    -4.619000000
H    -1.932000000    -8.012000000    -5.195000000
O     4.392000000     1.671000000     3.547000000
H     4.994000000     1.725000000     4.290000000
H     3.984000000     0.809000000     3.632000000
O    -1.984000000    -0.726000000     6.401000000
H    -2.887000000    -1.042000000     6.377000000
H    -1.746000000    -0.610000000     5.481000000
O     1.225000000     0.581000000    -5.877000000
H     1.969000000     0.289000000    -5.350000000
H     1.587000000     1.256000000    -6.450000000
O    -2.683000000     2.563000000     3.312000000
H    -1.730000000     2.628000000     3.252000000
H    -2.976000000     3.462000000     3.462000000
O     2.288000000     4.517000000     6.732000000
H     2.203000000     4.206000000     5.830000000
H     1.387000000     4.633000000     7.031000000
O     2.910000000    -0.546000000     4.098000000
H     3.486000000    -0.701000000     4.846000000
H     2.103000000    -1.014000000     4.316000000
O    -2.558000000    -2.947000000    -4.217000000
H    -2.437000000    -2.103000000    -4.652000000
H    -2.545000000    -2.740000000    -3.283000000
O    -4.540000000    -0.848000000    -1.537000000
H    -3.650000000    -1.178000000    -1.658000000
H    -5.088000000    -1.632000000    -1.533000000
O     3.574000000     3.425000000    -1.309000000
H     3.832000000     3.044000000    -0.470000000
H     2.739000000     3.857000000    -1.129000000
O     3.533000000    -1.036000000    -4.735000000
H     2.894000000    -1.685000000    -4.441000000
H     4.033000000    -0.818000000    -3.948000000
O     0.407000000     1.851000000     4.461000000
H     0.035000000     0.999000000     4.232000000
H     0.457000000     1.841000000     5.417000000
O    -2.579000000    -2.433000000     2.184000000
H    -3.045000000    -1.649000000     1.894000000
H    -2.887000000    -2.578000000     3.079000000
O    -1.161000000    -0.495000000     3.762000000
H    -0.826000000    -1.159000000     3.159000000
H    -1.633000000     0.121000000     3.201000000
O     4.779000000    -1.894000000    -0.595000000
H     4.651000000    -2.741000000    -1.022000000
H     4.334000000    -1.981000000     0.248000000
O     3.562000000    -6.833000000    -1.007000000
H     3.312000000    -7.602000000    -1.519000000
H     2.927000000    -6.162000000    -1.257000000
O    -6.110000000     0.219000000    -3.647000000
H    -5.919000000     1.145000000    -3.498000000
H    -5.502000000    -0.247000000    -3.073000000
O    -5.092000000    -4.247000000    -3.781000000
H    -5.052000000    -5.193000000    -3.642000000
H    -4.192000000    -3.948000000    -3.651000000
O    -0.929000000    -5.866000000    -0.427000000
H    -0.046000000    -6.089000000    -0.132000000
H    -1.182000000    -5.120000000     0.117000000
O    -0.366000000    -3.736000000    -5.796000000
H    -0.529000000    -4.675000000    -5.891000000
H    -1.092000000    -3.421000000    -5.257000000
O     4.417000000    -1.811000000     2.066000000
H     3.785000000    -1.695000000     2.776000000
H     5.087000000    -2.387000000     2.434000000
O     2.192000000     5.183000000    -0.040000000
H     2.499000000     5.544000000     0.792000000
H     2.479000000     5.817000000    -0.697000000
O    -3.692000000    -3.894000000     0.121000000
H    -3.421000000    -3.429000000     0.912000000
H    -3.208000000    -3.466000000    -0.586000000
O     1.563000000    -3.108000000    -4.171000000
H     1.004000000    -2.991000000    -3.404000000
H     0.952000000    -3.191000000    -4.903000000
O    -1.714000000     1.598000000    -4.474000000
H    -2.373000000     0.904000000    -4.478000000
H    -0.949000000     1.205000000    -4.895000000
O     0.502000000    -2.323000000     4.940000000
H     0.580000000    -2.548000000     4.013000000
H     0.015000000    -1.499000000     4.947000000
O    -3.880000000     0.201000000     2.126000000
H    -4.431000000     0.465000000     1.389000000
H    -3.739000000     1.009000000     2.620000000
O    -5.717000000     1.216000000    -0.174000000
H    -5.432000000     2.097000000    -0.414000000
H    -5.367000000     0.654000000    -0.865000000
O     5.160000000     1.043000000     0.849000000
H     4.686000000     0.216000000     0.762000000
H     4.831000000     1.423000000     1.664000000
O     4.949000000    -4.455000000    -1.006000000
H     4.899000000    -5.345000000    -0.658000000
H     4.444000000    -4.486000000    -1.818000000
