161
-3059.95621
C     0.460000000    -0.995000000    -0.920000000
H     0.845000000    -1.649000000    -1.698000000
C     1.322000000    -0.267000000    -0.138000000
H     2.406000000    -0.305000000    -0.210000000
C     0.737000000     0.683000000     0.694000000
C     1.613000000     1.474000000     1.616000000
H     2.287000000     0.727000000     2.041000000
H     2.262000000     2.273000000     1.251000000
H     1.052000000     1.878000000     2.461000000
C    -0.642000000     0.838000000     0.751000000
H    -1.010000000     1.645000000     1.379000000
C    -1.495000000     0.083000000    -0.062000000
H    -2.572000000     0.227000000    -0.025000000
C    -0.933000000    -0.886000000    -0.871000000
C    -1.837000000    -1.682000000    -1.807000000
O    -3.009000000    -1.993000000    -1.553000000
O    -1.490000000    -2.058000000    -2.911000000
O     3.661000000     6.804000000     3.025000000
H     3.245000000     6.393000000     3.784000000
H     3.304000000     6.333000000     2.272000000
O     2.849000000     5.135000000     5.058000000
H     3.039000000     4.197000000     5.091000000
H     2.720000000     5.386000000     5.973000000
O     0.188000000     1.992000000    -2.587000000
H    -0.128000000     1.785000000    -1.707000000
H     0.981000000     1.466000000    -2.687000000
O     0.257000000    -4.174000000    -3.359000000
H     0.295000000    -3.956000000    -4.291000000
H    -0.225000000    -3.447000000    -2.963000000
O     3.064000000    -4.575000000    -1.609000000
H     2.779000000    -4.038000000    -0.870000000
H     2.279000000    -4.676000000    -2.148000000
O     3.637000000     5.380000000     0.376000000
H     2.864000000     4.932000000     0.034000000
H     4.284000000     5.312000000    -0.326000000
O    -1.561000000     1.738000000    -4.489000000
H    -0.722000000     1.875000000    -4.049000000
H    -1.447000000     0.922000000    -4.976000000
O    -6.254000000    -4.022000000     1.188000000
H    -6.792000000    -3.990000000     0.397000000
H    -5.614000000    -3.320000000     1.071000000
O     2.979000000    -0.380000000     5.203000000
H     2.807000000    -0.851000000     4.387000000
H     2.564000000    -0.914000000     5.880000000
O    -3.203000000    -5.958000000     1.891000000
H    -3.713000000    -5.585000000     2.610000000
H    -3.197000000    -5.273000000     1.222000000
O     2.838000000     3.257000000    -1.368000000
H     2.741000000     3.607000000    -2.254000000
H     1.956000000     3.290000000    -0.999000000
O    -5.302000000     0.752000000     0.097000000
H    -5.012000000     1.407000000     0.732000000
H    -4.820000000    -0.040000000     0.333000000
O     0.049000000    -4.567000000     0.801000000
H     0.056000000    -5.219000000     0.100000000
H     0.724000000    -3.937000000     0.550000000
O    -3.073000000    -3.831000000    -4.157000000
H    -3.471000000    -4.408000000    -3.506000000
H    -2.656000000    -3.141000000    -3.642000000
O    -3.868000000    -0.739000000    -4.919000000
H    -4.814000000    -0.886000000    -4.921000000
H    -3.598000000    -0.932000000    -4.021000000
O     5.721000000    -0.849000000    -0.113000000
H     5.713000000    -1.722000000     0.281000000
H     6.640000000    -0.584000000    -0.088000000
O     3.185000000     2.451000000     4.963000000
H     3.067000000     1.502000000     4.927000000
H     3.828000000     2.639000000     4.280000000
O     2.592000000    -3.185000000     0.591000000
H     2.629000000    -4.017000000     1.062000000
H     2.712000000    -2.520000000     1.270000000
O    -1.516000000     3.289000000     3.553000000
H    -1.546000000     2.427000000     3.967000000
H    -0.679000000     3.660000000     3.831000000
O    -4.472000000    -3.541000000    -6.637000000
H    -4.028000000    -3.518000000    -7.485000000
H    -3.840000000    -3.949000000    -6.046000000
O    -2.592000000     5.264000000     1.783000000
H    -2.233000000     4.682000000     2.453000000
H    -2.438000000     4.803000000     0.958000000
O     0.562000000     4.343000000    -0.313000000
H     0.238000000     4.184000000     0.573000000
H    -0.214000000     4.273000000    -0.869000000
O     3.254000000    -2.260000000     3.124000000
H     4.146000000    -1.912000000     3.124000000
H     3.298000000    -3.036000000     3.682000000
O     0.156000000    -6.113000000    -1.503000000
H    -0.468000000    -6.811000000    -1.698000000
H     0.065000000    -5.500000000    -2.233000000
O    -5.737000000    -1.930000000    -1.937000000
H    -4.878000000    -2.319000000    -1.774000000
H    -6.161000000    -2.531000000    -2.549000000
O     5.742000000     1.595000000    -0.923000000
H     5.475000000     0.744000000    -0.576000000
H     5.059000000     2.198000000    -0.631000000
O    -5.906000000     1.086000000    -2.499000000
H    -5.025000000     1.436000000    -2.632000000
H    -5.906000000     0.775000000    -1.594000000
O    -1.424000000     0.864000000     4.917000000
H    -2.223000000     0.344000000     5.003000000
H    -1.309000000     1.271000000     5.775000000
O     1.637000000     2.286000000     7.292000000
H     1.844000000     2.242000000     6.359000000
H     2.108000000     3.057000000     7.607000000
O     4.509000000    -1.444000000    -2.722000000
H     4.960000000    -1.462000000    -1.878000000
H     5.003000000    -2.055000000    -3.270000000
O     5.671000000    -3.318000000     0.764000000
H     5.667000000    -4.092000000     1.326000000
H     4.783000000    -3.274000000     0.410000000
O     4.659000000     4.045000000     2.720000000
H     4.438000000     4.307000000     1.826000000
H     5.195000000     3.259000000     2.614000000
O    -1.838000000    -2.670000000     2.468000000
H    -1.237000000    -2.072000000     2.911000000
H    -1.271000000    -3.235000000     1.943000000
O    -0.019000000    -1.321000000     3.805000000
H    -0.414000000    -0.618000000     4.320000000
H     0.900000000    -1.069000000     3.721000000
O    -7.915000000    -1.270000000    -0.362000000
H    -6.994000000    -1.412000000    -0.582000000
H    -8.343000000    -2.097000000    -0.579000000
O    -3.881000000    -4.490000000    -0.424000000
H    -3.886000000    -5.124000000    -1.141000000
H    -3.422000000    -3.729000000    -0.780000000
O    -3.860000000     2.081000000     2.100000000
H    -3.188000000     1.979000000     2.773000000
H    -4.535000000     2.619000000     2.514000000
O    -1.161000000    -0.880000000    -5.318000000
H    -2.090000000    -1.108000000    -5.284000000
H    -0.816000000    -1.155000000    -4.469000000
O     0.822000000    -1.073000000    -7.479000000
H     0.072000000    -1.003000000    -6.888000000
H     1.534000000    -0.633000000    -7.015000000
O     6.064000000     1.649000000     2.834000000
H     5.573000000     0.842000000     2.988000000
H     6.889000000     1.357000000     2.446000000
O     0.785000000     4.796000000     3.273000000
H     1.565000000     4.885000000     3.821000000
H     0.524000000     5.697000000     3.082000000
O    -4.215000000    -1.903000000     0.789000000
H    -3.553000000    -2.258000000     1.382000000
H    -3.767000000    -1.827000000    -0.053000000
O     0.963000000    -3.710000000    -6.017000000
H     0.896000000    -2.968000000    -6.617000000
H     1.714000000    -4.210000000    -6.337000000
O     2.714000000     0.523000000    -2.967000000
H     3.049000000     0.826000000    -2.123000000
H     3.017000000    -0.383000000    -3.033000000
O    -3.592000000     2.723000000    -2.969000000
H    -2.904000000     2.100000000    -3.204000000
H    -4.047000000     2.898000000    -3.793000000
O    -1.417000000    -5.255000000    -5.746000000
H    -0.694000000    -4.671000000    -5.977000000
H    -1.914000000    -4.772000000    -5.086000000
O     2.573000000    -0.048000000    -5.899000000
H     1.918000000     0.374000000    -5.343000000
H     3.412000000     0.189000000    -5.504000000
O    -2.578000000     3.184000000    -0.356000000
H    -2.918000000     2.526000000     0.251000000
H    -3.093000000     3.063000000    -1.153000000
