161
-3055.89920
C     0.354000000    -1.181000000    -0.855000000
H     0.686000000    -1.939000000    -1.560000000
C     1.264000000    -0.223000000    -0.336000000
H     2.304000000    -0.297000000    -0.644000000
C     0.801000000     0.849000000     0.464000000
C     1.746000000     1.898000000     1.005000000
H     1.782000000     2.749000000     0.321000000
H     1.440000000     2.224000000     2.001000000
H     2.730000000     1.427000000     1.043000000
C    -0.553000000     0.922000000     0.751000000
H    -0.925000000     1.742000000     1.360000000
C    -1.433000000    -0.047000000     0.273000000
H    -2.490000000     0.134000000     0.450000000
C    -0.999000000    -1.144000000    -0.493000000
C    -1.993000000    -2.086000000    -1.127000000
O    -3.162000000    -2.063000000    -0.795000000
O    -1.555000000    -2.967000000    -1.856000000
O     3.128000000     3.415000000     3.704000000
H     3.700000000     2.657000000     3.582000000
H     2.304000000     3.045000000     4.019000000
O     2.111000000     5.640000000     5.688000000
H     2.223000000     5.127000000     4.887000000
H     1.198000000     5.498000000     5.938000000
O    -0.577000000     4.836000000    -0.979000000
H    -0.925000000     4.518000000    -1.812000000
H    -1.298000000     4.723000000    -0.359000000
O     4.014000000     1.127000000     5.936000000
H     4.176000000     0.696000000     6.776000000
H     3.520000000     1.915000000     6.162000000
O    -2.105000000     5.848000000     1.702000000
H    -2.339000000     5.013000000     2.108000000
H    -2.686000000     6.486000000     2.116000000
O     7.656000000     2.084000000    -0.927000000
H     7.471000000     2.531000000    -0.101000000
H     6.808000000     1.746000000    -1.213000000
O     0.394000000    -4.724000000    -1.500000000
H     0.651000000    -4.689000000    -0.579000000
H    -0.134000000    -3.937000000    -1.632000000
O     4.814000000     5.584000000    -1.216000000
H     4.411000000     4.727000000    -1.352000000
H     4.417000000     5.910000000    -0.408000000
O     1.685000000    -3.569000000     0.892000000
H     2.370000000    -3.892000000     1.478000000
H     2.146000000    -3.001000000     0.275000000
O    -7.089000000    -3.545000000    -0.317000000
H    -6.221000000    -3.935000000    -0.215000000
H    -7.035000000    -3.053000000    -1.136000000
O     2.469000000     6.079000000     2.155000000
H     2.781000000     5.174000000     2.123000000
H     3.261000000     6.600000000     2.288000000
O     4.783000000    -4.730000000    -3.337000000
H     4.851000000    -3.962000000    -3.904000000
H     3.854000000    -4.782000000    -3.114000000
O     0.675000000     6.826000000     0.108000000
H     1.333000000     6.464000000     0.702000000
H     0.326000000     6.064000000    -0.354000000
O    -0.904000000    -3.916000000     1.400000000
H    -1.479000000    -3.193000000     1.650000000
H    -0.019000000    -3.562000000     1.494000000
O    -3.281000000     1.491000000     4.100000000
H    -2.631000000     0.839000000     4.360000000
H    -3.964000000     0.986000000     3.658000000
O     4.041000000    -0.898000000    -2.741000000
H     4.518000000    -1.585000000    -3.206000000
H     4.107000000    -1.144000000    -1.818000000
O    -3.324000000     3.799000000    -1.031000000
H    -3.841000000     3.998000000    -1.812000000
H    -3.934000000     3.919000000    -0.303000000
O    -7.377000000    -1.901000000    -2.518000000
H    -8.274000000    -1.722000000    -2.239000000
H    -7.473000000    -2.457000000    -3.291000000
O    -5.512000000    -6.744000000    -0.863000000
H    -4.729000000    -7.269000000    -1.028000000
H    -5.183000000    -5.852000000    -0.748000000
O    -3.176000000    -4.586000000    -3.290000000
H    -2.822000000    -4.101000000    -2.545000000
H    -2.836000000    -4.126000000    -4.058000000
O     5.074000000     3.067000000    -3.822000000
H     4.304000000     3.475000000    -3.426000000
H     5.367000000     2.428000000    -3.172000000
O    -2.945000000    -0.822000000    -5.009000000
H    -3.469000000    -0.972000000    -4.222000000
H    -3.590000000    -0.714000000    -5.709000000
O    -2.450000000    -6.824000000    -4.699000000
H    -2.656000000    -6.094000000    -4.115000000
H    -1.826000000    -7.357000000    -4.207000000
O     5.333000000     1.767000000     3.380000000
H     6.006000000     2.262000000     3.847000000
H     5.009000000     1.137000000     4.024000000
O     1.591000000    -0.266000000    -4.085000000
H     1.645000000    -1.198000000    -4.295000000
H     2.411000000    -0.075000000    -3.629000000
O     0.098000000     5.643000000     3.665000000
H     0.741000000     6.227000000     3.263000000
H    -0.659000000     5.680000000     3.081000000
O     2.925000000    -0.481000000     3.077000000
H     2.078000000    -0.908000000     2.952000000
H     2.709000000     0.437000000     3.243000000
O    -1.435000000    -2.996000000    -4.539000000
H    -1.919000000    -2.216000000    -4.811000000
H    -1.242000000    -2.847000000    -3.614000000
O    -4.482000000    -1.309000000    -2.922000000
H    -4.038000000    -1.584000000    -2.120000000
H    -5.411000000    -1.309000000    -2.693000000
O     4.702000000     1.718000000    -1.503000000
H     4.782000000     1.373000000    -0.613000000
H     4.467000000     0.957000000    -2.034000000
O     1.210000000     1.988000000     5.457000000
H     1.356000000     1.246000000     6.043000000
H     0.368000000     2.349000000     5.733000000
O    -2.622000000    -2.053000000     2.778000000
H    -3.194000000    -1.568000000     2.183000000
H    -3.169000000    -2.232000000     3.543000000
O    -0.070000000    -1.477000000     2.672000000
H    -0.065000000    -0.982000000     1.853000000
H    -0.997000000    -1.620000000     2.860000000
O     4.361000000    -1.961000000     0.130000000
H     4.390000000    -2.877000000    -0.146000000
H     4.526000000    -1.988000000     1.072000000
O     1.973000000    -5.005000000    -3.588000000
H     1.627000000    -4.241000000    -4.049000000
H     1.355000000    -5.155000000    -2.873000000
O    -6.022000000     2.923000000     2.801000000
H    -5.351000000     2.258000000     2.951000000
H    -6.561000000     2.566000000     2.095000000
O    -5.747000000    -5.462000000    -3.267000000
H    -5.755000000    -6.307000000    -2.817000000
H    -4.833000000    -5.180000000    -3.229000000
O    -2.981000000     4.225000000     3.681000000
H    -3.607000000     4.522000000     4.341000000
H    -2.981000000     3.271000000     3.763000000
O    -2.030000000    -5.899000000     0.080000000
H    -2.076000000    -5.527000000    -0.801000000
H    -1.798000000    -5.159000000     0.641000000
O     5.256000000    -1.588000000     2.798000000
H     4.430000000    -1.117000000     2.907000000
H     5.606000000    -1.667000000     3.685000000
O     2.460000000     4.042000000    -3.116000000
H     1.525000000     3.923000000    -3.281000000
H     2.628000000     4.957000000    -3.340000000
O    -4.422000000    -4.139000000     0.084000000
H    -3.695000000    -4.457000000     0.620000000
H    -4.126000000    -3.288000000    -0.240000000
O     1.346000000    -2.790000000    -5.248000000
H     0.395000000    -2.876000000    -5.312000000
H     1.676000000    -3.161000000    -6.067000000
O    -1.048000000     1.387000000    -4.604000000
H    -1.715000000     0.770000000    -4.904000000
H    -0.497000000     0.875000000    -4.012000000
O     0.347000000    -1.394000000     5.519000000
H    -0.435000000    -0.878000000     5.711000000
H     0.291000000    -1.574000000     4.581000000
O    -5.039000000    -0.409000000     1.582000000
H    -5.966000000    -0.624000000     1.483000000
H    -4.822000000     0.085000000     0.791000000
O    -4.993000000     1.012000000    -0.822000000
H    -5.431000000     1.849000000    -0.981000000
H    -4.510000000     0.838000000    -1.630000000
O     5.602000000     0.775000000     0.785000000
H     5.413000000    -0.158000000     0.883000000
H     5.685000000     1.097000000     1.683000000
