161
-3019.05174
C     0.631000000    -1.251000000    -0.550000000
H     1.252000000    -2.093000000    -0.845000000
C     1.278000000    -0.015000000    -0.233000000
H     2.360000000     0.028000000    -0.332000000
C     0.595000000     1.067000000     0.293000000
C     1.372000000     2.370000000     0.611000000
H     0.611000000     3.153000000     0.578000000
H     1.880000000     2.390000000     1.577000000
H     2.101000000     2.703000000    -0.131000000
C    -0.774000000     0.945000000     0.426000000
H    -1.381000000     1.801000000     0.707000000
C    -1.434000000    -0.312000000     0.290000000
H    -2.506000000    -0.490000000     0.291000000
C    -0.738000000    -1.352000000    -0.298000000
C    -1.551000000    -2.611000000    -0.714000000
O    -2.791000000    -2.708000000    -0.598000000
O    -0.899000000    -3.627000000    -1.079000000
O     3.545000000     6.310000000     3.649000000
H     4.228000000     5.644000000     3.568000000
H     3.257000000     6.247000000     4.560000000
O     1.002000000    -6.764000000    -4.607000000
H     0.743000000    -7.530000000    -5.119000000
H     0.177000000    -6.325000000    -4.398000000
O     1.668000000     6.264000000     1.185000000
H     1.774000000     6.009000000     0.269000000
H     2.408000000     6.846000000     1.359000000
O    -6.360000000    -5.086000000     1.660000000
H    -6.469000000    -5.656000000     0.898000000
H    -5.463000000    -4.760000000     1.590000000
O    -5.259000000     3.420000000    -0.055000000
H    -4.926000000     3.754000000     0.778000000
H    -6.116000000     3.051000000     0.160000000
O     1.278000000     2.262000000    -5.108000000
H     0.943000000     1.559000000    -4.550000000
H     1.187000000     3.053000000    -4.577000000
O    -5.317000000     0.424000000     1.868000000
H    -5.345000000     1.368000000     2.028000000
H    -6.066000000     0.076000000     2.352000000
O    -2.779000000    -7.853000000     0.705000000
H    -3.071000000    -6.960000000     0.520000000
H    -1.981000000    -7.741000000     1.222000000
O    -0.269000000    -3.910000000    -3.843000000
H     0.236000000    -3.200000000    -4.238000000
H    -0.494000000    -3.587000000    -2.970000000
O    -2.427000000    -5.718000000    -1.664000000
H    -1.852000000    -4.988000000    -1.433000000
H    -2.181000000    -5.942000000    -2.562000000
O     3.024000000     5.144000000    -0.938000000
H     3.756000000     5.531000000    -1.419000000
H     3.437000000     4.665000000    -0.220000000
O    -1.946000000    -4.319000000    -6.301000000
H    -1.340000000    -3.972000000    -6.955000000
H    -1.670000000    -3.912000000    -5.479000000
O     6.658000000     0.146000000    -2.807000000
H     6.509000000    -0.116000000    -1.898000000
H     7.019000000     1.031000000    -2.745000000
O    -1.943000000    -6.832000000    -4.279000000
H    -2.306000000    -6.214000000    -4.914000000
H    -2.376000000    -7.662000000    -4.477000000
O     5.515000000     3.925000000     0.875000000
H     6.231000000     4.457000000     0.528000000
H     5.238000000     3.384000000     0.135000000
O     0.582000000    -0.095000000    -3.440000000
H     0.968000000     0.069000000    -2.580000000
H    -0.340000000    -0.278000000    -3.257000000
O    -0.993000000     2.691000000    -2.283000000
H    -1.533000000     2.619000000    -1.496000000
H    -0.785000000     1.786000000    -2.514000000
O    -4.273000000     1.390000000    -1.772000000
H    -4.705000000     2.040000000    -1.217000000
H    -4.628000000     0.551000000    -1.478000000
O    -1.470000000     7.512000000    -0.504000000
H    -1.360000000     6.672000000    -0.057000000
H    -1.393000000     8.165000000     0.191000000
O     0.416000000    -7.216000000    -0.958000000
H    -0.506000000    -7.316000000    -1.198000000
H     0.752000000    -6.559000000    -1.568000000
O     0.908000000    -4.774000000     0.465000000
H     1.030000000    -5.661000000     0.127000000
H     0.441000000    -4.313000000    -0.232000000
O    -4.547000000    -3.668000000    -2.638000000
H    -4.424000000    -4.595000000    -2.435000000
H    -3.981000000    -3.210000000    -2.016000000
O     4.012000000    -0.510000000     5.285000000
H     3.349000000    -0.421000000     5.971000000
H     3.521000000    -0.436000000     4.467000000
O     1.152000000     4.775000000     3.434000000
H     1.327000000     5.276000000     2.638000000
H     0.830000000     5.425000000     4.060000000
O    -2.007000000     0.222000000    -2.890000000
H    -2.364000000     0.856000000    -2.268000000
H    -2.769000000    -0.084000000    -3.383000000
O     4.353000000    -2.826000000    -4.416000000
H     4.370000000    -2.903000000    -3.462000000
H     3.688000000    -3.455000000    -4.696000000
O     1.618000000    -5.236000000    -2.158000000
H     1.058000000    -5.022000000    -2.904000000
H     2.028000000    -4.404000000    -1.920000000
O     3.969000000     2.947000000    -3.751000000
H     3.678000000     3.815000000    -3.472000000
H     3.315000000     2.671000000    -4.393000000
O    -5.293000000    -1.036000000    -0.425000000
H    -5.510000000    -0.667000000     0.431000000
H    -4.591000000    -1.662000000    -0.245000000
O     0.377000000     2.171000000     4.025000000
H     0.469000000     1.998000000     4.961000000
H     0.185000000     3.108000000     3.972000000
O     4.425000000    -2.532000000     1.935000000
H     5.154000000    -2.180000000     1.424000000
H     4.677000000    -2.384000000     2.846000000
O     6.537000000    -2.116000000     0.094000000
H     7.402000000    -2.256000000    -0.292000000
H     6.409000000    -1.168000000     0.059000000
O     5.274000000     4.035000000     3.641000000
H     5.395000000     4.000000000     2.692000000
H     5.358000000     3.126000000     3.927000000
O    -0.076000000    -6.967000000     2.520000000
H     0.298000000    -7.760000000     2.903000000
H     0.570000000    -6.686000000     1.872000000
O     1.859000000    -3.175000000     2.656000000
H     1.244000000    -3.508000000     2.003000000
H     2.520000000    -2.707000000     2.146000000
O     1.995000000     0.283000000     3.232000000
H     1.897000000     0.157000000     2.288000000
H     1.596000000     1.136000000     3.403000000
O     6.502000000     0.737000000     0.108000000
H     6.800000000     1.204000000     0.889000000
H     6.205000000     1.427000000    -0.485000000
O     1.163000000    -1.713000000     4.880000000
H     1.375000000    -0.982000000     4.300000000
H     1.527000000    -2.481000000     4.439000000
O    -7.933000000    -1.157000000    -1.014000000
H    -6.999000000    -1.324000000    -0.892000000
H    -8.262000000    -0.980000000    -0.133000000
O    -3.586000000    -4.916000000     0.770000000
H    -3.495000000    -5.348000000    -0.080000000
H    -3.306000000    -4.015000000     0.611000000
O     1.363000000     4.185000000    -3.176000000
H     1.694000000     4.755000000    -2.482000000
H     0.556000000     3.815000000    -2.817000000
O    -4.209000000    -1.165000000    -4.361000000
H    -5.139000000    -1.000000000    -4.515000000
H    -4.187000000    -2.011000000    -3.914000000
O    -7.307000000    -3.471000000    -3.664000000
H    -6.651000000    -3.428000000    -2.968000000
H    -7.057000000    -4.236000000    -4.182000000
O     5.570000000     2.740000000    -1.559000000
H     5.057000000     2.725000000    -2.367000000
H     6.126000000     3.515000000    -1.643000000
O     3.773000000    -3.068000000    -1.911000000
H     3.929000000    -2.543000000    -1.126000000
H     4.275000000    -3.870000000    -1.767000000
O     2.180000000     4.116000000     5.973000000
H     1.704000000     4.160000000     5.143000000
H     2.962000000     3.600000000     5.773000000
O    -2.248000000     0.830000000     4.976000000
H    -1.701000000     1.107000000     4.241000000
H    -2.921000000     0.277000000     4.579000000
O    -4.838000000    -2.799000000     4.128000000
H    -5.313000000    -2.409000000     3.395000000
H    -5.362000000    -2.577000000     4.898000000
