161
-3053.24768
C     0.749000000     0.801000000     0.969000000
H     1.369000000     1.436000000     1.598000000
C     0.806000000     0.935000000    -0.422000000
H     1.187000000     1.844000000    -0.882000000
C     0.083000000     0.097000000    -1.232000000
C    -0.007000000     0.345000000    -2.725000000
H     0.634000000     1.187000000    -2.997000000
H     0.388000000    -0.502000000    -3.290000000
H    -1.068000000     0.413000000    -2.971000000
C    -0.637000000    -0.918000000    -0.662000000
H    -1.291000000    -1.543000000    -1.265000000
C    -0.789000000    -0.985000000     0.729000000
H    -1.439000000    -1.721000000     1.196000000
C    -0.098000000    -0.104000000     1.608000000
C    -0.062000000    -0.338000000     3.064000000
O    -0.313000000    -1.404000000     3.506000000
O     0.490000000     0.453000000     3.780000000
O    -1.211000000    -2.458000000     6.994000000
H    -1.830000000    -2.002000000     7.564000000
H    -0.503000000    -1.828000000     6.857000000
O    -3.972000000     4.930000000    -3.206000000
H    -3.676000000     5.710000000    -2.737000000
H    -3.257000000     4.302000000    -3.101000000
O     1.419000000     5.105000000    -0.380000000
H     1.692000000     4.902000000     0.514000000
H     2.190000000     4.915000000    -0.915000000
O     0.954000000    -3.336000000     1.004000000
H     0.203000000    -3.319000000     0.411000000
H     0.842000000    -2.562000000     1.556000000
O    -2.723000000    -3.148000000    -2.585000000
H    -2.194000000    -2.680000000    -3.230000000
H    -3.372000000    -2.506000000    -2.297000000
O    -3.970000000    -2.769000000     1.169000000
H    -4.119000000    -2.011000000     1.734000000
H    -4.093000000    -3.524000000     1.744000000
O    -1.493000000     4.917000000     5.296000000
H    -1.334000000     5.785000000     4.926000000
H    -1.326000000     4.313000000     4.572000000
O     1.720000000    -2.961000000    -6.526000000
H     2.622000000    -3.208000000    -6.730000000
H     1.613000000    -2.097000000    -6.922000000
O    -0.276000000    -4.918000000     6.453000000
H    -0.705000000    -4.082000000     6.636000000
H    -0.996000000    -5.522000000     6.274000000
O    -4.117000000    -0.480000000     2.750000000
H    -3.722000000     0.221000000     2.231000000
H    -3.528000000    -0.587000000     3.497000000
O     2.821000000    -1.666000000    -1.492000000
H     2.013000000    -2.178000000    -1.473000000
H     3.519000000    -2.320000000    -1.501000000
O     3.891000000    -0.481000000     0.896000000
H     3.725000000    -0.229000000     1.805000000
H     3.041000000    -0.773000000     0.569000000
O     0.924000000    -3.761000000     4.449000000
H     0.303000000    -4.096000000     5.096000000
H     0.547000000    -2.930000000     4.163000000
O     1.609000000     4.495000000     2.379000000
H     1.380000000     5.400000000     2.590000000
H     1.743000000     4.078000000     3.231000000
O     1.809000000    -5.778000000     0.235000000
H     2.754000000    -5.646000000     0.166000000
H     1.463000000    -4.918000000     0.475000000
O     3.500000000     0.207000000    -4.501000000
H     3.079000000     0.100000000    -5.354000000
H     4.025000000    -0.586000000    -4.393000000
O    -3.518000000     1.057000000    -3.903000000
H    -2.636000000     0.886000000    -4.232000000
H    -4.084000000     0.493000000    -4.429000000
O    -2.103000000     0.653000000    -6.293000000
H    -1.150000000     0.608000000    -6.209000000
H    -2.248000000     1.144000000    -7.102000000
O     4.833000000     4.723000000     3.895000000
H     5.069000000     5.297000000     3.166000000
H     4.426000000     3.963000000     3.479000000
O    -1.169000000     3.580000000     0.854000000
H    -0.314000000     3.928000000     0.601000000
H    -1.751000000     4.339000000     0.838000000
O     0.991000000    -0.232000000    -7.819000000
H     0.458000000     0.450000000    -7.410000000
H     1.782000000     0.222000000    -8.108000000
O    -4.721000000     3.194000000    -5.220000000
H    -4.318000000     2.552000000    -4.635000000
H    -4.616000000     4.031000000    -4.767000000
O    -2.898000000     1.360000000     1.060000000
H    -2.207000000     1.999000000     0.882000000
H    -3.339000000     1.244000000     0.218000000
O     2.221000000    -5.788000000     3.117000000
H     1.582000000    -5.293000000     3.630000000
H     2.071000000    -5.509000000     2.214000000
O    -1.933000000    -4.447000000    -0.240000000
H    -2.220000000    -4.071000000    -1.071000000
H    -2.555000000    -4.109000000     0.404000000
O    -2.089000000    -1.548000000    -4.846000000
H    -2.160000000    -0.690000000    -5.262000000
H    -2.231000000    -2.172000000    -5.557000000
O    -1.022000000     2.492000000     7.093000000
H    -0.905000000     3.085000000     7.836000000
H    -1.714000000     2.896000000     6.570000000
O    -5.208000000    -1.573000000    -1.747000000
H    -5.092000000    -0.699000000    -1.375000000
H    -5.101000000    -2.166000000    -1.003000000
O    -0.135000000    -4.444000000    -5.605000000
H    -0.830000000    -3.833000000    -5.850000000
H     0.667000000    -4.038000000    -5.934000000
O     3.204000000    -2.359000000     5.076000000
H     2.445000000    -2.876000000     4.804000000
H     3.103000000    -2.267000000     6.024000000
O    -4.222000000     1.303000000    -1.338000000
H    -5.005000000     1.853000000    -1.379000000
H    -3.895000000     1.284000000    -2.238000000
O     0.574000000    -3.663000000    -2.094000000
H     0.344000000    -3.623000000    -3.022000000
H    -0.023000000    -4.315000000    -1.727000000
O     3.029000000     0.080000000     3.485000000
H     2.122000000     0.338000000     3.648000000
H     3.250000000    -0.492000000     4.220000000
O     3.665000000     1.441000000    -2.163000000
H     3.268000000     0.968000000    -2.894000000
H     3.436000000     0.924000000    -1.391000000
O    -0.567000000     6.176000000    -2.083000000
H    -0.998000000     6.689000000    -1.399000000
H     0.147000000     5.727000000    -1.631000000
O     2.002000000     3.339000000     4.807000000
H     2.529000000     2.759000000     5.356000000
H     1.097000000     3.094000000     5.000000000
O     0.079000000     2.225000000    -6.815000000
H    -0.216000000     3.110000000    -7.029000000
H     0.971000000     2.343000000    -6.487000000
O     3.832000000     4.160000000    -1.276000000
H     4.770000000     4.246000000    -1.106000000
H     3.749000000     3.334000000    -1.753000000
O     0.530000000    -0.381000000     6.212000000
H     0.234000000     0.443000000     6.599000000
H     0.425000000    -0.255000000     5.269000000
O    -1.166000000    -6.339000000     2.355000000
H    -1.772000000    -5.971000000     1.711000000
H    -0.586000000    -5.612000000     2.582000000
O    -2.592000000    -0.648000000     4.850000000
H    -1.684000000    -0.936000000     4.762000000
H    -2.696000000    -0.466000000     5.784000000
O    -3.610000000     2.655000000     4.157000000
H    -2.712000000     2.400000000     4.370000000
H    -3.660000000     2.581000000     3.204000000
O    -4.425000000    -5.325000000    -2.846000000
H    -3.881000000    -4.577000000    -2.597000000
H    -4.005000000    -5.675000000    -3.631000000
O    -0.631000000     2.763000000     3.586000000
H    -0.922000000     2.821000000     2.676000000
H    -0.161000000     1.931000000     3.635000000
O     3.999000000     2.380000000     2.297000000
H     3.491000000     1.642000000     2.634000000
H     3.406000000     2.822000000     1.690000000
O     2.926000000     0.968000000     6.531000000
H     2.222000000     0.478000000     6.105000000
H     2.878000000     0.707000000     7.450000000
O    -1.645000000     3.487000000    -2.573000000
H    -1.423000000     3.013000000    -1.771000000
H    -0.965000000     4.156000000    -2.651000000
O    -4.184000000    -2.792000000     5.360000000
H    -3.587000000    -2.177000000     4.935000000
H    -4.888000000    -2.243000000     5.705000000
