161
-3076.77965
C     0.516000000     0.569000000     1.227000000
H     1.076000000     0.988000000     2.059000000
C     0.436000000     1.188000000    -0.038000000
H     0.725000000     2.234000000    -0.096000000
C    -0.179000000     0.596000000    -1.121000000
C    -0.489000000     1.371000000    -2.280000000
H    -0.617000000     2.406000000    -1.957000000
H     0.234000000     1.431000000    -3.095000000
H    -1.437000000     1.104000000    -2.753000000
C    -0.535000000    -0.763000000    -0.967000000
H    -1.000000000    -1.383000000    -1.729000000
C    -0.287000000    -1.421000000     0.217000000
H    -0.313000000    -2.503000000     0.313000000
C     0.222000000    -0.778000000     1.331000000
C     0.489000000    -1.491000000     2.603000000
O     0.163000000    -2.711000000     2.780000000
O     0.997000000    -0.831000000     3.509000000
O    -0.160000000    -3.394000000     5.528000000
H    -0.489000000    -2.686000000     6.082000000
H    -0.141000000    -3.019000000     4.647000000
O    -0.380000000     4.591000000    -6.914000000
H    -1.226000000     4.821000000    -7.300000000
H    -0.569000000     4.462000000    -5.985000000
O     3.875000000    -5.308000000     4.752000000
H     4.218000000    -5.846000000     5.466000000
H     3.213000000    -4.754000000     5.166000000
O     1.259000000     3.526000000     2.274000000
H     0.543000000     3.881000000     1.747000000
H     1.958000000     3.354000000     1.643000000
O    -0.969000000     5.391000000    -4.181000000
H    -1.759000000     5.387000000    -3.641000000
H    -0.935000000     6.274000000    -4.550000000
O     2.616000000    -0.944000000    -1.182000000
H     2.174000000    -0.786000000    -0.347000000
H     1.977000000    -1.428000000    -1.704000000
O     3.727000000     2.790000000     3.830000000
H     2.886000000     2.762000000     3.374000000
H     3.978000000     1.871000000     3.924000000
O    -3.343000000    -4.539000000    -4.346000000
H    -4.118000000    -5.009000000    -4.653000000
H    -3.486000000    -3.634000000    -4.625000000
O    -2.164000000    -5.913000000    -1.098000000
H    -1.883000000    -6.205000000    -0.231000000
H    -2.308000000    -6.722000000    -1.589000000
O    -1.288000000     2.411000000     6.985000000
H    -0.637000000     3.111000000     6.948000000
H    -0.998000000     1.779000000     6.327000000
O     0.963000000    -2.593000000    -5.229000000
H     0.174000000    -2.073000000    -5.078000000
H     0.638000000    -3.440000000    -5.533000000
O    -2.345000000    -5.109000000     6.082000000
H    -2.108000000    -4.288000000     6.512000000
H    -2.226000000    -4.934000000     5.149000000
O    -3.917000000    -2.288000000     0.199000000
H    -4.485000000    -1.621000000     0.586000000
H    -3.339000000    -2.553000000     0.914000000
O     3.110000000     1.994000000    -2.681000000
H     3.132000000     1.609000000    -1.805000000
H     3.466000000     2.875000000    -2.565000000
O     4.129000000     1.461000000     0.875000000
H     5.013000000     1.130000000     0.716000000
H     3.848000000     1.019000000     1.676000000
O     0.510000000    -6.295000000     3.936000000
H     0.112000000    -6.181000000     3.073000000
H     0.597000000    -5.406000000     4.279000000
O    -4.449000000    -4.691000000    -0.790000000
H    -3.627000000    -4.971000000    -1.193000000
H    -4.334000000    -3.752000000    -0.640000000
O     0.101000000    -4.993000000     1.102000000
H     0.746000000    -4.850000000     0.410000000
H     0.262000000    -4.289000000     1.729000000
O     0.512000000     1.818000000    -6.029000000
H     1.425000000     1.687000000    -5.772000000
H     0.557000000     2.423000000    -6.769000000
O     4.330000000    -1.481000000    -3.348000000
H     5.036000000    -0.911000000    -3.044000000
H     3.574000000    -1.230000000    -2.817000000
O     2.381000000    -3.860000000    -0.081000000
H     1.991000000    -3.560000000    -0.902000000
H     2.651000000    -4.761000000    -0.259000000
O    -2.148000000     1.670000000    -5.875000000
H    -2.453000000     1.967000000    -5.018000000
H    -1.201000000     1.807000000    -5.853000000
O    -3.971000000    -1.594000000    -2.802000000
H    -4.715000000    -2.163000000    -2.999000000
H    -3.923000000    -1.585000000    -1.846000000
O     5.234000000    -0.829000000     6.404000000
H     5.090000000    -1.642000000     6.887000000
H     4.402000000    -0.664000000     5.959000000
O    -1.566000000    -1.680000000    -4.597000000
H    -2.179000000    -1.849000000    -3.882000000
H    -1.902000000    -0.891000000    -5.021000000
O    -0.647000000     4.626000000     0.609000000
H    -0.810000000     5.392000000     1.159000000
H    -0.050000000     4.940000000    -0.070000000
O    -1.890000000     1.995000000     2.148000000
H    -2.070000000     1.081000000     1.930000000
H    -1.540000000     2.369000000     1.339000000
O    -1.515000000    -7.057000000     1.798000000
H    -0.828000000    -7.714000000     1.690000000
H    -1.085000000    -6.225000000     1.601000000
O    -0.747000000    -4.714000000    -3.221000000
H    -1.355000000    -4.434000000    -3.905000000
H    -1.309000000    -4.945000000    -2.481000000
O    -4.576000000     4.427000000    -5.797000000
H    -5.309000000     3.818000000    -5.887000000
H    -3.943000000     3.962000000    -5.250000000
O    -5.307000000     0.892000000    -3.402000000
H    -5.678000000     0.479000000    -2.622000000
H    -4.838000000     0.185000000    -3.846000000
O     1.580000000    -3.287000000    -2.624000000
H     1.526000000    -2.752000000    -3.416000000
H     0.820000000    -3.867000000    -2.676000000
O     1.600000000    -4.698000000     7.606000000
H     1.158000000    -4.430000000     6.800000000
H     1.010000000    -4.419000000     8.307000000
O     3.792000000    -3.114000000     2.694000000
H     3.207000000    -3.129000000     1.937000000
H     3.535000000    -3.877000000     3.211000000
O     2.836000000     3.674000000     0.208000000
H     3.455000000     4.280000000    -0.200000000
H     3.364000000     2.910000000     0.436000000
O    -0.846000000    -1.362000000     7.633000000
H    -0.850000000    -0.495000000     8.037000000
H    -1.770000000    -1.606000000     7.581000000
O    -2.723000000     6.525000000    -2.271000000
H    -2.535000000     7.170000000    -1.589000000
H    -2.782000000     5.692000000    -1.803000000
O     3.500000000    -0.138000000     2.938000000
H     2.553000000    -0.248000000     3.020000000
H     3.843000000    -1.032000000     2.911000000
O     0.725000000     4.099000000     5.140000000
H     0.418000000     3.495000000     4.464000000
H     1.555000000     4.434000000     4.803000000
O    -3.016000000     3.816000000    -0.801000000
H    -3.718000000     3.450000000    -0.263000000
H    -2.238000000     3.770000000    -0.245000000
O     3.123000000     1.536000000    -5.267000000
H     3.005000000     1.702000000    -4.332000000
H     4.071000000     1.571000000    -5.399000000
O     0.895000000     5.495000000    -1.523000000
H     1.808000000     5.344000000    -1.276000000
H     0.763000000     4.946000000    -2.297000000
O     2.398000000    -1.312000000     5.740000000
H     1.790000000    -1.123000000     6.454000000
H     1.848000000    -1.339000000     4.958000000
O    -2.655000000    -2.859000000     2.466000000
H    -1.733000000    -3.116000000     2.456000000
H    -3.135000000    -3.683000000     2.393000000
O    -3.613000000    -0.433000000     3.786000000
H    -3.588000000    -0.471000000     4.742000000
H    -3.216000000    -1.257000000     3.503000000
O    -0.428000000     1.362000000     4.559000000
H    -0.986000000     1.504000000     3.794000000
H     0.077000000     0.577000000     4.345000000
O     1.339000000     3.907000000    -3.702000000
H     0.824000000     4.583000000    -4.142000000
H     0.841000000     3.101000000    -3.836000000
O    -3.265000000     2.924000000    -3.831000000
H    -3.858000000     2.268000000    -3.464000000
H    -2.870000000     3.343000000    -3.066000000
