161
-3036.89167
C     0.358000000     0.878000000     1.190000000
H     0.607000000     1.599000000     1.964000000
C     0.176000000     1.294000000    -0.139000000
H     0.265000000     2.311000000    -0.513000000
C    -0.067000000     0.401000000    -1.114000000
C    -0.296000000     0.870000000    -2.530000000
H    -0.472000000    -0.019000000    -3.139000000
H    -1.187000000     1.491000000    -2.650000000
H     0.492000000     1.530000000    -2.899000000
C    -0.157000000    -0.969000000    -0.874000000
H    -0.381000000    -1.686000000    -1.660000000
C    -0.072000000    -1.415000000     0.413000000
H    -0.138000000    -2.475000000     0.644000000
C     0.192000000    -0.520000000     1.476000000
C     0.206000000    -0.946000000     2.897000000
O    -0.046000000    -2.103000000     3.114000000
O     0.526000000    -0.236000000     3.814000000
O    -0.591000000    -3.270000000     5.454000000
H    -1.334000000    -2.685000000     5.600000000
H    -0.251000000    -3.017000000     4.596000000
O     4.778000000    -0.282000000     5.253000000
H     3.964000000    -0.781000000     5.317000000
H     4.997000000    -0.063000000     6.159000000
O     0.547000000     5.425000000     1.624000000
H    -0.123000000     4.764000000     1.449000000
H     1.291000000     4.927000000     1.963000000
O     2.863000000     0.306000000    -0.265000000
H     3.027000000     1.067000000    -0.823000000
H     1.934000000     0.370000000    -0.042000000
O     1.409000000     4.440000000     5.446000000
H     0.694000000     5.033000000     5.218000000
H     1.160000000     3.602000000     5.055000000
O    -4.368000000    -3.162000000    -3.714000000
H    -3.930000000    -3.492000000    -4.499000000
H    -4.611000000    -2.263000000    -3.936000000
O    -4.162000000    -5.350000000    -0.192000000
H    -4.701000000    -6.123000000    -0.360000000
H    -3.872000000    -5.454000000     0.715000000
O    -1.674000000     2.344000000     7.641000000
H    -1.168000000     3.154000000     7.702000000
H    -1.194000000     1.809000000     7.009000000
O    -0.151000000     6.797000000    -3.625000000
H     0.474000000     6.696000000    -2.907000000
H    -0.290000000     5.906000000    -3.948000000
O    -0.824000000    -2.499000000    -6.674000000
H    -1.739000000    -2.675000000    -6.455000000
H    -0.608000000    -3.149000000    -7.343000000
O    -1.291000000    -4.899000000     7.627000000
H    -0.794000000    -4.407000000     6.974000000
H    -1.708000000    -4.227000000     8.167000000
O     3.266000000     2.657000000    -1.627000000
H     3.341000000     2.565000000    -2.577000000
H     3.288000000     3.602000000    -1.476000000
O     2.588000000     4.147000000     2.819000000
H     3.460000000     3.822000000     2.592000000
H     2.206000000     3.451000000     3.355000000
O     2.463000000    -1.654000000     5.228000000
H     2.776000000    -2.347000000     4.648000000
H     1.774000000    -1.216000000     4.728000000
O     0.914000000    -4.404000000     2.213000000
H     1.187000000    -4.199000000     1.319000000
H     0.476000000    -3.609000000     2.518000000
O     0.571000000     4.036000000    -3.842000000
H     1.308000000     3.498000000    -4.133000000
H     0.829000000     4.347000000    -2.974000000
O     2.359000000    -1.152000000    -4.198000000
H     2.851000000    -1.816000000    -3.716000000
H     2.323000000    -0.402000000    -3.603000000
O     2.014000000    -3.947000000    -0.114000000
H     1.444000000    -3.783000000    -0.865000000
H     2.467000000    -4.762000000    -0.331000000
O    -0.825000000     1.272000000    -6.343000000
H    -0.752000000     0.326000000    -6.220000000
H    -0.310000000     1.647000000    -5.629000000
O     2.768000000     1.896000000     6.776000000
H     3.602000000     1.495000000     7.022000000
H     2.199000000     1.748000000     7.532000000
O    -4.781000000    -0.827000000    -5.326000000
H    -4.829000000    -0.160000000    -6.011000000
H    -4.696000000    -0.331000000    -4.513000000
O    -2.775000000     2.598000000    -7.755000000
H    -3.557000000     2.517000000    -7.208000000
H    -2.102000000     2.106000000    -7.285000000
O     4.376000000     1.275000000     2.532000000
H     4.328000000     0.344000000     2.317000000
H     4.452000000     1.296000000     3.486000000
O    -1.489000000     4.065000000     0.029000000
H    -2.323000000     4.492000000     0.221000000
H    -1.521000000     3.888000000    -0.911000000
O    -3.083000000     0.944000000     3.779000000
H    -2.941000000     0.086000000     3.378000000
H    -3.940000000     1.221000000     3.454000000
O     0.824000000    -7.301000000     1.851000000
H     1.322000000    -7.636000000     2.597000000
H     1.144000000    -6.407000000     1.731000000
O    -2.168000000    -4.596000000    -1.925000000
H    -2.719000000    -4.016000000    -2.450000000
H    -2.786000000    -5.097000000    -1.394000000
O    -5.002000000     3.305000000    -3.070000000
H    -5.364000000     4.099000000    -3.463000000
H    -5.718000000     2.951000000    -2.543000000
O    -2.257000000     3.716000000     4.788000000
H    -2.785000000     3.743000000     5.586000000
H    -2.475000000     2.876000000     4.385000000
O     1.356000000    -0.653000000    -6.870000000
H     1.989000000    -0.702000000    -6.154000000
H     0.780000000    -1.405000000    -6.732000000
O     2.329000000    -3.773000000    -5.577000000
H     1.763000000    -3.027000000    -5.378000000
H     3.023000000    -3.728000000    -4.919000000
O     0.529000000    -3.918000000    -2.364000000
H     0.535000000    -3.454000000    -3.201000000
H    -0.397000000    -4.079000000    -2.185000000
O     1.399000000    -3.024000000     7.431000000
H     2.041000000    -2.619000000     6.848000000
H     0.585000000    -3.022000000     6.928000000
O     3.488000000    -3.515000000     3.208000000
H     2.629000000    -3.903000000     3.038000000
H     3.769000000    -3.176000000     2.358000000
O     3.748000000     4.950000000    -0.466000000
H     4.358000000     4.779000000     0.251000000
H     4.048000000     5.776000000    -0.845000000
O     3.875000000    -2.078000000     0.835000000
H     3.200000000    -2.586000000     0.385000000
H     3.762000000    -1.186000000     0.506000000
O     5.658000000     0.475000000    -1.116000000
H     4.826000000     0.061000000    -0.887000000
H     5.880000000     1.005000000    -0.350000000
O     1.659000000     2.047000000     4.303000000
H     1.431000000     1.121000000     4.221000000
H     2.145000000     2.102000000     5.125000000
O    -2.835000000     1.291000000    -0.514000000
H    -3.327000000     1.202000000     0.302000000
H    -1.927000000     1.117000000    -0.266000000
O     3.099000000     2.706000000    -4.346000000
H     3.878000000     2.381000000    -4.797000000
H     3.239000000     3.650000000    -4.276000000
O     1.082000000     5.315000000    -1.410000000
H     0.500000000     5.495000000    -0.672000000
H     1.849000000     4.901000000    -1.015000000
O     1.239000000     0.892000000     8.507000000
H     1.534000000     0.249000000     9.152000000
H     0.626000000     0.411000000     7.952000000
O    -3.072000000    -2.155000000     3.680000000
H    -2.314000000    -2.513000000     3.218000000
H    -3.827000000    -2.466000000     3.180000000
O    -3.738000000    -1.501000000     6.420000000
H    -2.874000000    -1.118000000     6.571000000
H    -3.771000000    -1.653000000     5.475000000
O    -1.010000000     0.509000000     5.728000000
H    -1.732000000     0.651000000     5.115000000
H    -0.260000000     0.303000000     5.170000000
O    -2.673000000     5.198000000    -3.897000000
H    -3.267000000     5.823000000    -4.313000000
H    -3.246000000     4.505000000    -3.568000000
O     5.334000000     2.913000000     0.499000000
H     5.020000000     2.529000000     1.318000000
H     4.586000000     2.852000000    -0.096000000
O    -4.136000000     0.502000000    -2.868000000
H    -3.654000000     0.489000000    -2.041000000
H    -4.307000000     1.430000000    -3.031000000
