161
-3021.05072
C     0.770000000     0.529000000     1.125000000
H     1.410000000     0.847000000     1.943000000
C     1.346000000     0.082000000    -0.105000000
H     2.425000000     0.142000000    -0.221000000
C     0.521000000    -0.310000000    -1.118000000
C     1.053000000    -0.644000000    -2.438000000
H     2.098000000    -0.347000000    -2.550000000
H     0.988000000    -1.732000000    -2.505000000
H     0.357000000    -0.239000000    -3.176000000
C    -0.880000000    -0.391000000    -0.851000000
H    -1.494000000    -0.886000000    -1.599000000
C    -1.397000000    -0.100000000     0.424000000
H    -2.472000000    -0.196000000     0.555000000
C    -0.622000000     0.358000000     1.396000000
C    -1.218000000     0.733000000     2.718000000
O    -2.355000000     1.151000000     2.755000000
O    -0.526000000     0.995000000     3.653000000
O    -1.495000000     3.819000000     6.411000000
H    -2.157000000     3.249000000     6.021000000
H    -0.948000000     4.090000000     5.674000000
O    -1.750000000     3.736000000    -4.707000000
H    -2.657000000     3.481000000    -4.878000000
H    -1.671000000     4.609000000    -5.092000000
O     0.144000000     1.675000000     6.185000000
H    -0.090000000     1.416000000     5.294000000
H    -0.206000000     2.561000000     6.277000000
O    -0.557000000     2.730000000    -1.178000000
H    -0.629000000     1.776000000    -1.227000000
H    -0.935000000     2.955000000    -0.328000000
O    -3.219000000     2.323000000     4.871000000
H    -2.631000000     1.966000000     4.205000000
H    -3.521000000     3.154000000     4.504000000
O    -0.131000000     5.601000000     0.035000000
H     0.328000000     4.968000000     0.587000000
H    -0.707000000     5.068000000    -0.513000000
O     4.627000000    -1.586000000     0.285000000
H     5.547000000    -1.445000000     0.506000000
H     4.502000000    -2.531000000     0.374000000
O    -0.014000000    -5.750000000    -1.847000000
H    -0.244000000    -5.910000000    -2.762000000
H     0.367000000    -6.575000000    -1.547000000
O    -4.060000000     0.044000000     5.714000000
H    -3.215000000    -0.381000000     5.568000000
H    -4.035000000     0.825000000     5.162000000
O    -1.636000000     0.810000000    -6.147000000
H    -1.072000000     0.048000000    -6.015000000
H    -1.055000000     1.477000000    -6.513000000
O    -4.199000000     1.737000000    -1.349000000
H    -3.291000000     1.953000000    -1.136000000
H    -4.249000000     0.787000000    -1.248000000
O     1.647000000    -0.294000000     4.374000000
H     2.028000000    -0.651000000     3.571000000
H     0.777000000     0.007000000     4.112000000
O    -2.064000000     3.172000000     0.970000000
H    -2.171000000     2.345000000     1.440000000
H    -2.806000000     3.706000000     1.252000000
O     4.010000000     5.195000000     3.700000000
H     3.915000000     4.283000000     3.424000000
H     4.087000000     5.686000000     2.882000000
O     4.265000000    -0.161000000     5.023000000
H     3.340000000    -0.226000000     4.787000000
H     4.262000000     0.199000000     5.910000000
O    -1.038000000    -3.795000000    -6.449000000
H    -0.419000000    -3.091000000    -6.259000000
H    -1.802000000    -3.349000000    -6.815000000
O    -6.201000000    -0.721000000    -2.981000000
H    -5.700000000     0.010000000    -3.340000000
H    -5.906000000    -1.483000000    -3.480000000
O    -1.228000000    -1.126000000     5.461000000
H    -1.496000000    -1.856000000     4.902000000
H    -0.821000000    -0.502000000     4.861000000
O     0.332000000    -4.210000000     0.743000000
H    -0.036000000    -4.171000000    -0.139000000
H     1.245000000    -4.465000000     0.611000000
O    -4.073000000    -2.961000000     0.564000000
H    -4.539000000    -3.711000000     0.194000000
H    -4.146000000    -3.078000000     1.511000000
O     0.283000000     3.834000000     4.053000000
H    -0.024000000     2.985000000     3.733000000
H     0.735000000     4.223000000     3.304000000
O     2.318000000    -1.767000000     2.107000000
H     3.064000000    -1.803000000     1.508000000
H     1.598000000    -2.163000000     1.615000000
O     2.048000000    -3.733000000     4.421000000
H     2.190000000    -2.789000000     4.348000000
H     2.927000000    -4.111000000     4.390000000
O    -4.936000000    -3.186000000     3.196000000
H    -5.479000000    -3.960000000     3.346000000
H    -5.454000000    -2.460000000     3.543000000
O    -0.710000000    -3.242000000     3.179000000
H    -0.587000000    -3.486000000     2.262000000
H     0.168000000    -3.289000000     3.559000000
O    -2.510000000    -3.520000000    -2.140000000
H    -2.357000000    -3.578000000    -1.197000000
H    -2.299000000    -4.393000000    -2.471000000
O     5.425000000    -2.667000000    -2.847000000
H     4.752000000    -1.987000000    -2.808000000
H     6.252000000    -2.189000000    -2.786000000
O    -3.926000000     4.871000000     4.467000000
H    -4.233000000     5.686000000     4.069000000
H    -3.960000000     5.037000000     5.409000000
O     7.239000000     0.646000000    -0.661000000
H     6.797000000    -0.034000000    -1.169000000
H     7.607000000     0.182000000     0.091000000
O    -1.733000000    -0.552000000     8.199000000
H    -1.486000000    -0.645000000     7.279000000
H    -2.349000000     0.181000000     8.209000000
O     0.059000000    -1.390000000    -5.711000000
H     0.280000000    -1.895000000    -4.928000000
H     0.898000000    -1.053000000    -6.023000000
O     3.787000000     2.688000000     2.698000000
H     4.158000000     1.923000000     3.138000000
H     4.389000000     2.864000000     1.975000000
O    -6.459000000    -0.816000000     4.373000000
H    -5.998000000    -0.521000000     3.588000000
H    -5.866000000    -0.603000000     5.093000000
O     1.736000000     1.837000000     8.592000000
H     1.367000000     1.714000000     7.718000000
H     1.019000000     1.618000000     9.188000000
O     5.182000000     0.015000000    -4.718000000
H     6.111000000     0.221000000    -4.618000000
H     4.727000000     0.789000000    -4.386000000
O     1.883000000    -1.167000000     7.072000000
H     1.241000000    -0.764000000     7.657000000
H     1.626000000    -0.874000000     6.197000000
O     1.394000000     3.697000000     1.459000000
H     1.195000000     3.078000000     0.756000000
H     2.285000000     3.476000000     1.727000000
O     0.567000000     3.784000000    -3.475000000
H    -0.124000000     3.677000000    -4.129000000
H     0.132000000     3.618000000    -2.639000000
O     5.773000000     4.036000000    -2.376000000
H     6.177000000     3.753000000    -3.196000000
H     4.983000000     3.500000000    -2.302000000
O    -4.836000000    -0.746000000    -0.508000000
H    -5.292000000    -1.048000000    -1.294000000
H    -4.455000000    -1.539000000    -0.133000000
O    -3.927000000    -2.056000000    -3.882000000
H    -3.287000000    -2.337000000    -3.227000000
H    -4.482000000    -2.824000000    -4.019000000
O     2.879000000    -1.530000000    -6.180000000
H     3.589000000    -1.105000000    -5.698000000
H     3.177000000    -2.431000000    -6.300000000
O    -6.603000000     2.243000000     0.986000000
H    -6.146000000     1.484000000     1.347000000
H    -7.526000000     1.990000000     0.987000000
O     3.361000000     2.564000000    -2.615000000
H     3.139000000     2.806000000    -3.514000000
H     2.525000000     2.577000000    -2.150000000
O    -4.014000000     0.390000000    -5.048000000
H    -3.162000000     0.664000000    -5.386000000
H    -3.866000000    -0.494000000    -4.712000000
O    -6.582000000     3.480000000     3.806000000
H    -6.967000000     3.791000000     2.987000000
H    -5.640000000     3.603000000     3.690000000
O    -4.937000000     4.446000000     1.221000000
H    -5.553000000     3.772000000     0.934000000
H    -5.025000000     5.143000000     0.571000000
O    -4.924000000     0.139000000     2.402000000
H    -4.236000000     0.796000000     2.510000000
H    -4.778000000    -0.219000000     1.526000000
