161
-3052.59685
C     1.167000000     0.727000000     0.615000000
H     2.094000000     1.132000000     1.012000000
C     1.090000000     0.265000000    -0.714000000
H     1.961000000     0.360000000    -1.356000000
C    -0.086000000    -0.357000000    -1.200000000
C    -0.139000000    -0.860000000    -2.647000000
H    -1.021000000    -1.482000000    -2.814000000
H    -0.252000000     0.011000000    -3.295000000
H     0.724000000    -1.490000000    -2.874000000
C    -1.155000000    -0.435000000    -0.319000000
H    -2.141000000    -0.733000000    -0.666000000
C    -1.014000000    -0.047000000     1.003000000
H    -1.890000000    -0.236000000     1.619000000
C     0.120000000     0.539000000     1.528000000
C     0.151000000     0.784000000     2.981000000
O    -0.864000000     0.789000000     3.662000000
O     1.249000000     1.025000000     3.470000000
O     4.368000000    -2.049000000     5.666000000
H     4.046000000    -2.927000000     5.465000000
H     4.126000000    -1.524000000     4.903000000
O    -6.526000000    -1.915000000    -0.442000000
H    -6.393000000    -2.582000000     0.232000000
H    -5.726000000    -1.942000000    -0.966000000
O     3.530000000     3.061000000    -0.398000000
H     2.642000000     3.416000000    -0.431000000
H     4.098000000     3.830000000    -0.446000000
O     1.594000000     5.315000000     1.463000000
H     0.964000000     5.748000000     2.039000000
H     1.963000000     4.612000000     1.998000000
O     0.667000000    -0.383000000     8.153000000
H     0.590000000     0.128000000     7.347000000
H     0.333000000    -1.250000000     7.920000000
O    -1.811000000     1.955000000    -7.332000000
H    -2.641000000     1.483000000    -7.261000000
H    -1.641000000     2.275000000    -6.446000000
O    -1.319000000     2.366000000     5.730000000
H    -1.599000000     3.208000000     5.373000000
H    -1.158000000     1.821000000     4.959000000
O    -4.497000000    -2.198000000    -2.536000000
H    -4.777000000    -1.518000000    -3.149000000
H    -4.492000000    -3.002000000    -3.057000000
O    -4.120000000     0.226000000     6.679000000
H    -5.071000000     0.130000000     6.732000000
H    -3.781000000    -0.390000000     7.328000000
O     1.204000000     2.656000000    -3.217000000
H     1.532000000     3.005000000    -2.388000000
H     1.986000000     2.343000000    -3.671000000
O    -0.674000000    -0.851000000     5.757000000
H    -0.476000000    -0.152000000     5.134000000
H    -1.570000000    -1.114000000     5.545000000
O    -3.566000000     1.187000000    -2.620000000
H    -3.843000000     0.866000000    -1.761000000
H    -3.432000000     0.394000000    -3.140000000
O    -3.603000000     0.312000000     3.658000000
H    -3.668000000     0.327000000     4.613000000
H    -2.722000000     0.638000000     3.473000000
O     1.275000000     4.757000000    -1.297000000
H     0.461000000     4.977000000    -1.749000000
H     1.233000000     5.245000000    -0.475000000
O     3.392000000    -2.170000000     1.593000000
H     2.772000000    -2.504000000     2.242000000
H     3.763000000    -1.386000000     1.999000000
O     1.341000000     1.569000000     6.166000000
H     0.597000000     2.162000000     6.273000000
H     1.316000000     1.318000000     5.243000000
O     3.670000000     1.659000000     7.780000000
H     2.793000000     1.513000000     7.425000000
H     3.841000000     0.889000000     8.322000000
O    -6.222000000     1.308000000     3.230000000
H    -6.517000000     1.037000000     2.361000000
H    -5.311000000     1.017000000     3.276000000
O     2.106000000    -2.856000000    -4.123000000
H     2.229000000    -3.799000000    -4.228000000
H     2.101000000    -2.719000000    -3.176000000
O     3.905000000    -0.221000000     3.616000000
H     4.463000000     0.412000000     3.162000000
H     3.068000000     0.230000000     3.720000000
O    -1.158000000    -4.157000000     2.351000000
H    -2.002000000    -4.094000000     2.797000000
H    -0.776000000    -3.283000000     2.436000000
O     2.678000000     3.054000000     2.840000000
H     3.494000000     2.888000000     2.368000000
H     2.355000000     2.184000000     3.074000000
O     2.397000000     4.774000000     6.552000000
H     3.196000000     4.350000000     6.238000000
H     1.834000000     4.826000000     5.780000000
O    -3.306000000    -2.429000000     5.453000000
H    -3.199000000    -3.113000000     6.114000000
H    -3.645000000    -1.678000000     5.939000000
O    -3.345000000    -2.823000000    -5.570000000
H    -2.753000000    -3.500000000    -5.897000000
H    -4.212000000    -3.099000000    -5.867000000
O     5.230000000     1.314000000     2.120000000
H     5.661000000     2.163000000     2.216000000
H     5.144000000     1.195000000     1.174000000
O    -3.554000000    -3.859000000     3.260000000
H    -4.268000000    -4.379000000     3.628000000
H    -3.526000000    -3.072000000     3.803000000
O     1.582000000    -2.495000000     3.540000000
H     1.533000000    -3.151000000     4.236000000
H     1.171000000    -1.717000000     3.916000000
O     6.581000000    -1.311000000     0.735000000
H     5.800000000    -0.759000000     0.701000000
H     7.193000000    -0.826000000     1.289000000
O    -0.064000000    -3.136000000     7.099000000
H     0.335000000    -3.825000000     6.568000000
H    -0.433000000    -2.525000000     6.461000000
O     0.590000000    -1.822000000    -5.995000000
H     1.252000000    -2.089000000    -5.357000000
H    -0.243000000    -1.940000000    -5.539000000
O    -2.041000000     2.771000000    -0.281000000
H    -1.804000000     2.633000000    -1.198000000
H    -1.713000000     1.994000000     0.171000000
O    -0.789000000    -5.504000000    -2.835000000
H    -0.469000000    -6.263000000    -2.346000000
H    -1.310000000    -5.013000000    -2.200000000
O    -4.498000000     4.156000000     4.109000000
H    -4.440000000     5.106000000     4.006000000
H    -3.713000000     3.920000000     4.603000000
O    -6.389000000     0.786000000    -2.167000000
H    -5.675000000     0.608000000    -2.779000000
H    -6.033000000     0.555000000    -1.310000000
O     5.147000000     0.904000000    -0.602000000
H     5.414000000     0.897000000    -1.521000000
H     4.434000000     1.542000000    -0.565000000
O     1.630000000    -2.845000000    -0.687000000
H     0.766000000    -2.467000000    -0.852000000
H     2.055000000    -2.224000000    -0.096000000
O    -4.796000000    -0.354000000    -4.579000000
H    -5.595000000    -0.322000000    -5.105000000
H    -4.130000000    -0.692000000    -5.177000000
O     0.863000000     4.462000000     4.490000000
H     1.226000000     3.777000000     3.928000000
H    -0.072000000     4.469000000     4.286000000
O     2.975000000    -5.115000000    -0.500000000
H     3.837000000    -4.703000000    -0.455000000
H     2.367000000    -4.385000000    -0.625000000
O     3.610000000    -0.990000000    -5.873000000
H     2.720000000    -0.985000000    -6.225000000
H     3.636000000    -1.756000000    -5.300000000
O     3.965000000     1.729000000    -4.092000000
H     4.875000000     1.760000000    -3.795000000
H     3.966000000     1.086000000    -4.801000000
O    -2.002000000     4.879000000     4.946000000
H    -2.085000000     5.303000000     4.092000000
H    -1.496000000     5.499000000     5.472000000
O    -1.554000000     2.590000000    -4.540000000
H    -0.691000000     2.809000000    -4.189000000
H    -1.908000000     1.949000000    -3.924000000
O    -4.206000000    -1.853000000     1.699000000
H    -3.929000000    -1.278000000     2.412000000
H    -4.173000000    -2.733000000     2.074000000
O    -2.095000000    -4.276000000    -0.325000000
H    -1.640000000    -4.081000000     0.495000000
H    -2.537000000    -3.458000000    -0.554000000
O    -4.089000000     2.366000000     1.622000000
H    -4.243000000     2.952000000     2.363000000
H    -3.408000000     2.801000000     1.109000000
O    -4.468000000     0.353000000    -0.270000000
H    -4.495000000     1.004000000     0.431000000
H    -4.437000000    -0.489000000     0.186000000
