161
-3031.56523
C    -1.267000000    -0.745000000     0.137000000
H    -2.252000000    -1.092000000     0.437000000
C    -1.167000000     0.628000000     0.247000000
H    -2.089000000     1.157000000     0.476000000
C     0.070000000     1.196000000     0.065000000
C     0.258000000     2.684000000     0.308000000
H     1.214000000     3.047000000    -0.075000000
H    -0.501000000     3.225000000    -0.260000000
H     0.305000000     2.893000000     1.379000000
C     1.183000000     0.429000000    -0.192000000
H     2.151000000     0.905000000    -0.329000000
C     1.107000000    -0.950000000    -0.262000000
H     2.007000000    -1.523000000    -0.471000000
C    -0.102000000    -1.596000000    -0.126000000
C    -0.277000000    -3.059000000    -0.405000000
O     0.739000000    -3.633000000    -0.790000000
O    -1.380000000    -3.572000000    -0.144000000
O    -3.247000000     0.556000000    -2.059000000
H    -3.130000000     0.457000000    -1.114000000
H    -2.389000000     0.349000000    -2.429000000
O     1.497000000    -4.811000000     1.559000000
H     1.818000000    -4.522000000     0.705000000
H     0.852000000    -4.149000000     1.810000000
O    -1.946000000     7.765000000    -1.835000000
H    -1.678000000     6.982000000    -2.315000000
H    -2.899000000     7.697000000    -1.779000000
O    -3.730000000    -7.713000000     1.653000000
H    -2.934000000    -7.237000000     1.890000000
H    -3.805000000    -7.597000000     0.705000000
O    -6.656000000    -0.186000000     0.077000000
H    -5.799000000    -0.605000000     0.001000000
H    -7.184000000    -0.808000000     0.578000000
O     2.015000000    -2.920000000    -5.148000000
H     2.812000000    -2.414000000    -4.985000000
H     1.769000000    -2.696000000    -6.045000000
O    -2.017000000     3.591000000    -2.615000000
H    -1.569000000     2.850000000    -3.021000000
H    -2.426000000     3.223000000    -1.831000000
O    -0.910000000     0.191000000    -3.297000000
H    -0.867000000    -0.557000000    -3.894000000
H     0.004000000     0.378000000    -3.083000000
O     2.915000000    -4.216000000    -1.929000000
H     2.147000000    -3.833000000    -1.507000000
H     2.741000000    -5.157000000    -1.937000000
O    -1.547000000    -1.388000000     4.201000000
H    -2.487000000    -1.464000000     4.362000000
H    -1.407000000    -0.456000000     4.035000000
O     2.102000000     0.496000000     4.850000000
H     2.530000000     1.173000000     5.374000000
H     2.665000000    -0.272000000     4.946000000
O     6.535000000     0.793000000    -1.086000000
H     7.487000000     0.757000000    -1.177000000
H     6.231000000     1.184000000    -1.905000000
O    -1.865000000     5.885000000    -4.010000000
H    -1.750000000     5.085000000    -3.497000000
H    -1.085000000     5.928000000    -4.564000000
O    -3.137000000     5.197000000     4.698000000
H    -2.731000000     4.585000000     5.311000000
H    -2.685000000     5.042000000     3.869000000
O     5.008000000     4.096000000    -1.510000000
H     4.659000000     3.214000000    -1.633000000
H     4.607000000     4.612000000    -2.210000000
O     2.883000000     6.350000000    -3.068000000
H     3.778000000     6.610000000    -2.849000000
H     2.337000000     6.808000000    -2.429000000
O    -1.467000000    -5.798000000     1.514000000
H    -0.770000000    -5.408000000     2.041000000
H    -1.683000000    -5.125000000     0.868000000
O    -5.180000000    -0.820000000    -3.507000000
H    -5.603000000    -1.525000000    -3.015000000
H    -4.604000000    -0.397000000    -2.872000000
O     3.765000000    -3.331000000     3.877000000
H     3.149000000    -2.906000000     3.281000000
H     3.666000000    -2.858000000     4.703000000
O     3.948000000    -5.712000000     1.870000000
H     4.213000000    -5.180000000     2.620000000
H     3.021000000    -5.507000000     1.747000000
O    -0.272000000     1.790000000     4.388000000
H     0.560000000     1.379000000     4.623000000
H    -0.081000000     2.728000000     4.379000000
O    -4.033000000    -1.743000000     4.550000000
H    -4.512000000    -0.935000000     4.362000000
H    -4.228000000    -1.928000000     5.469000000
O     1.916000000     4.409000000     5.020000000
H     1.974000000     3.643000000     5.591000000
H     1.278000000     4.980000000     5.448000000
O    -2.777000000    -3.335000000    -2.366000000
H    -3.229000000    -4.141000000    -2.616000000
H    -2.327000000    -3.555000000    -1.550000000
O    -0.379000000    -3.460000000     3.125000000
H    -0.166000000    -3.967000000     3.908000000
H    -0.830000000    -2.683000000     3.457000000
O     5.497000000    -4.457000000    -2.866000000
H     6.082000000    -4.812000000    -2.197000000
H     4.727000000    -4.163000000    -2.379000000
O    -0.951000000    -2.253000000    -4.349000000
H    -0.042000000    -2.337000000    -4.637000000
H    -1.088000000    -3.002000000    -3.769000000
O    -2.849000000     1.838000000     3.425000000
H    -2.724000000     2.637000000     2.914000000
H    -1.984000000     1.647000000     3.788000000
O     0.065000000    -8.210000000     0.200000000
H     0.924000000    -8.195000000     0.621000000
H    -0.428000000    -7.516000000     0.636000000
O     2.496000000     4.309000000     2.257000000
H     1.881000000     4.983000000     1.969000000
H     2.208000000     4.085000000     3.142000000
O     1.825000000    -1.786000000     2.839000000
H     1.754000000    -1.002000000     2.293000000
H     0.933000000    -2.128000000     2.883000000
O    -1.325000000    -7.748000000    -3.559000000
H    -0.917000000    -6.893000000    -3.419000000
H    -2.265000000    -7.579000000    -3.494000000
O     3.933000000    -2.011000000    -3.345000000
H     3.423000000    -2.807000000    -3.195000000
H     4.809000000    -2.225000000    -3.024000000
O    -6.021000000    -5.271000000     0.886000000
H    -5.270000000    -4.928000000     0.402000000
H    -5.901000000    -4.945000000     1.778000000
O    -5.796000000     2.642000000     3.659000000
H    -4.887000000     2.350000000     3.730000000
H    -6.309000000     1.834000000     3.682000000
O     0.889000000     6.580000000     1.714000000
H     0.128000000     6.524000000     1.137000000
H     1.306000000     7.410000000     1.481000000
O     5.448000000     1.560000000     3.320000000
H     5.238000000     0.912000000     2.647000000
H     5.225000000     2.401000000     2.921000000
O    -0.146000000    -5.634000000    -2.550000000
H     0.059000000    -4.895000000    -1.978000000
H     0.496000000    -6.304000000    -2.315000000
O    -2.628000000     4.182000000     1.893000000
H    -3.411000000     4.535000000     1.471000000
H    -1.900000000     4.615000000     1.448000000
O     1.780000000     0.074000000    -3.270000000
H     1.665000000    -0.461000000    -2.485000000
H     2.411000000    -0.412000000    -3.801000000
O    -4.445000000    -2.052000000    -0.405000000
H    -4.115000000    -2.392000000     0.427000000
H    -3.778000000    -2.297000000    -1.046000000
O     2.221000000    -7.100000000    -1.911000000
H     2.157000000    -7.723000000    -2.635000000
H     2.107000000    -7.634000000    -1.125000000
O    -3.207000000    -2.988000000     2.138000000
H    -2.265000000    -3.050000000     1.984000000
H    -3.289000000    -2.400000000     2.889000000
O     3.799000000     1.852000000    -2.345000000
H     2.960000000     1.434000000    -2.537000000
H     4.454000000     1.213000000    -2.628000000
O     5.203000000    -0.149000000     1.027000000
H     5.666000000    -0.983000000     0.938000000
H     5.477000000     0.359000000     0.263000000
O     5.158000000     4.015000000     1.420000000
H     4.238000000     3.891000000     1.657000000
H     5.208000000     3.738000000     0.505000000
O    -4.159000000    -7.124000000    -1.092000000
H    -4.345000000    -6.314000000    -1.568000000
H    -4.393000000    -7.821000000    -1.705000000
O    -1.686000000     6.855000000     0.629000000
H    -1.687000000     7.267000000    -0.235000000
H    -2.181000000     7.459000000     1.182000000
