161
-3051.24831
C    -0.765000000     0.077000000     1.332000000
H    -1.348000000     0.340000000     2.212000000
C    -0.731000000     1.055000000     0.304000000
H    -1.253000000     2.007000000     0.251000000
C     0.112000000     0.856000000    -0.840000000
C     0.038000000     1.891000000    -1.947000000
H     0.256000000     1.512000000    -2.948000000
H    -0.954000000     2.347000000    -1.965000000
H     0.706000000     2.723000000    -1.716000000
C     0.805000000    -0.310000000    -1.010000000
H     1.299000000    -0.487000000    -1.962000000
C     0.675000000    -1.317000000    -0.080000000
H     1.185000000    -2.257000000    -0.276000000
C    -0.013000000    -1.079000000     1.136000000
C    -0.055000000    -2.149000000     2.203000000
O     0.234000000    -3.275000000     1.924000000
O    -0.189000000    -1.929000000     3.383000000
O    -1.360000000     7.081000000    -2.232000000
H    -1.584000000     6.379000000    -1.621000000
H    -0.404000000     7.068000000    -2.272000000
O     0.209000000    -0.160000000     8.581000000
H     0.182000000    -0.417000000     7.659000000
H     1.136000000    -0.206000000     8.815000000
O    -3.394000000     3.141000000    -2.432000000
H    -3.390000000     2.623000000    -1.627000000
H    -2.973000000     3.965000000    -2.189000000
O     2.644000000     2.761000000     0.585000000
H     2.825000000     1.848000000     0.362000000
H     1.973000000     3.032000000    -0.041000000
O    -3.831000000     4.079000000     4.742000000
H    -4.769000000     4.024000000     4.556000000
H    -3.499000000     3.200000000     4.559000000
O    -3.391000000     1.422000000    -4.568000000
H    -3.110000000     0.563000000    -4.255000000
H    -3.559000000     1.924000000    -3.771000000
O    -3.513000000     1.521000000     3.478000000
H    -3.702000000     1.046000000     4.287000000
H    -4.259000000     1.330000000     2.909000000
O    -3.041000000     0.363000000    -1.490000000
H    -2.657000000    -0.145000000    -2.205000000
H    -2.310000000     0.525000000    -0.893000000
O     3.884000000    -2.164000000    -0.862000000
H     3.990000000    -2.660000000    -0.050000000
H     4.440000000    -2.619000000    -1.495000000
O    -2.972000000    -2.426000000     3.539000000
H    -2.858000000    -2.413000000     2.589000000
H    -2.137000000    -2.111000000     3.885000000
O     0.113000000     5.351000000     1.315000000
H    -0.207000000     4.849000000     2.064000000
H     0.630000000     6.057000000     1.703000000
O    -5.651000000     0.493000000     1.484000000
H    -6.410000000     0.023000000     1.141000000
H    -5.152000000     0.742000000     0.706000000
O    -0.988000000     2.135000000     7.094000000
H    -0.838000000     1.445000000     6.447000000
H    -0.553000000     1.819000000     7.886000000
O     0.217000000    -3.893000000     5.276000000
H     1.097000000    -3.826000000     5.647000000
H     0.158000000    -3.157000000     4.667000000
O    -4.740000000    -3.377000000     5.340000000
H    -4.184000000    -2.947000000     4.691000000
H    -4.165000000    -3.519000000     6.092000000
O     1.386000000     4.270000000    -4.001000000
H     0.494000000     4.296000000    -4.348000000
H     1.598000000     3.337000000    -3.956000000
O     0.829000000    -5.826000000     2.731000000
H     0.018000000    -6.017000000     3.204000000
H     0.682000000    -4.964000000     2.343000000
O    -1.696000000     4.905000000    -0.535000000
H    -2.611000000     4.884000000    -0.254000000
H    -1.222000000     5.253000000     0.220000000
O     3.287000000    -1.890000000     4.680000000
H     3.284000000    -0.950000000     4.861000000
H     4.004000000    -2.234000000     5.213000000
O    -1.003000000    -0.356000000     5.390000000
H    -0.524000000    -0.861000000     4.733000000
H    -1.917000000    -0.405000000     5.109000000
O     1.564000000     1.716000000     2.698000000
H     1.352000000     0.963000000     2.145000000
H     2.074000000     2.294000000     2.130000000
O    -1.483000000     3.861000000     3.245000000
H    -2.104000000     4.422000000     3.709000000
H    -2.026000000     3.178000000     2.850000000
O     0.877000000    -7.136000000    -0.227000000
H     1.713000000    -6.729000000    -0.455000000
H     0.528000000    -6.589000000     0.476000000
O     0.472000000     1.455000000    -6.602000000
H     0.280000000     2.148000000    -7.234000000
H     1.244000000     1.014000000    -6.957000000
O    -1.328000000    -6.110000000     4.266000000
H    -2.189000000    -5.800000000     3.984000000
H    -0.967000000    -5.383000000     4.775000000
O     3.479000000     0.319000000     0.386000000
H     3.480000000    -0.540000000    -0.036000000
H     4.120000000     0.241000000     1.093000000
O    -3.409000000    -2.683000000     0.744000000
H    -4.054000000    -3.386000000     0.832000000
H    -3.650000000    -2.238000000    -0.069000000
O    -1.365000000    -4.516000000     0.554000000
H    -0.680000000    -4.141000000     1.108000000
H    -2.134000000    -3.972000000     0.724000000
O     1.980000000     5.862000000    -0.574000000
H     1.259000000     5.519000000    -0.046000000
H     1.591000000     6.030000000    -1.432000000
O    -2.056000000    -3.806000000     6.739000000
H    -1.705000000    -3.332000000     7.492000000
H    -1.336000000    -3.821000000     6.108000000
O     5.606000000    -4.272000000     2.894000000
H     5.209000000    -5.041000000     3.304000000
H     4.864000000    -3.776000000     2.549000000
O     1.959000000    -4.194000000    -3.088000000
H     2.597000000    -4.749000000    -2.640000000
H     2.394000000    -3.939000000    -3.901000000
O     4.182000000     0.211000000    -2.497000000
H     3.941000000    -0.694000000    -2.298000000
H     4.162000000     0.656000000    -1.650000000
O    -1.809000000    -1.061000000    -3.471000000
H    -0.973000000    -0.834000000    -3.878000000
H    -1.728000000    -1.991000000    -3.261000000
O    -2.045000000    -6.718000000    -1.006000000
H    -1.512000000    -6.696000000    -1.801000000
H    -1.676000000    -6.031000000    -0.451000000
O     0.912000000    -0.438000000    -4.593000000
H     0.935000000    -1.292000000    -5.025000000
H     0.821000000     0.190000000    -5.310000000
O     0.978000000     3.333000000     4.775000000
H     0.114000000     3.721000000     4.636000000
H     1.167000000     2.871000000     3.959000000
O     2.300000000    -2.919000000     7.510000000
H     2.519000000    -2.056000000     7.861000000
H     2.767000000    -2.964000000     6.676000000
O     3.132000000    -2.854000000     2.076000000
H     2.202000000    -2.981000000     1.889000000
H     3.154000000    -2.554000000     2.985000000
O    -1.358000000     4.338000000    -5.388000000
H    -2.055000000     3.682000000    -5.355000000
H    -0.939000000     4.198000000    -6.237000000
O     2.827000000     1.763000000    -4.309000000
H     3.361000000     1.320000000    -3.649000000
H     2.501000000     1.056000000    -4.866000000
O     3.204000000    -6.395000000     4.284000000
H     2.344000000    -6.413000000     3.864000000
H     3.014000000    -6.254000000     5.211000000
O     3.463000000     1.034000000     4.532000000
H     2.738000000     1.219000000     3.935000000
H     4.185000000     0.775000000     3.960000000
O     3.955000000     4.305000000    -3.496000000
H     3.187000000     4.854000000    -3.339000000
H     3.618000000     3.559000000    -3.993000000
O    -0.707000000    -3.581000000    -2.732000000
H    -0.936000000    -4.029000000    -1.918000000
H     0.246000000    -3.650000000    -2.784000000
O     4.295000000     4.901000000     0.783000000
H     3.774000000     5.510000000     0.260000000
H     3.719000000     4.148000000     0.919000000
O     1.270000000     6.812000000    -3.035000000
H     1.715000000     7.634000000    -3.241000000
H     1.521000000     6.219000000    -3.744000000
O     0.451000000    -3.155000000    -5.639000000
H     0.374000000    -3.452000000    -4.732000000
H     0.165000000    -3.905000000    -6.161000000
