161
-3044.27208
C    -1.181000000    -0.507000000    -0.809000000
H    -2.119000000    -0.673000000    -1.332000000
C    -1.126000000     0.641000000     0.016000000
H    -1.979000000     1.308000000     0.114000000
C     0.048000000     1.007000000     0.707000000
C     0.144000000     2.330000000     1.421000000
H     0.654000000     3.105000000     0.845000000
H    -0.840000000     2.757000000     1.628000000
H     0.695000000     2.162000000     2.349000000
C     1.149000000     0.161000000     0.669000000
H     2.058000000     0.283000000     1.251000000
C     1.062000000    -0.934000000    -0.189000000
H     1.947000000    -1.566000000    -0.189000000
C    -0.036000000    -1.288000000    -0.916000000
C    -0.117000000    -2.568000000    -1.695000000
O     0.872000000    -3.190000000    -1.957000000
O    -1.227000000    -3.022000000    -1.916000000
O     0.118000000     0.691000000    -5.141000000
H     0.932000000     1.194000000    -5.131000000
H     0.398000000    -0.220000000    -5.052000000
O     0.683000000    -4.633000000     0.740000000
H     0.621000000    -4.240000000    -0.131000000
H    -0.224000000    -4.809000000     0.988000000
O     2.172000000     3.432000000     5.027000000
H     1.372000000     3.945000000     5.141000000
H     2.621000000     3.498000000     5.870000000
O    -3.084000000    -7.771000000    -4.064000000
H    -2.759000000    -6.916000000    -3.781000000
H    -4.011000000    -7.765000000    -3.824000000
O    -5.450000000     1.548000000    -1.710000000
H    -5.224000000     0.742000000    -2.173000000
H    -5.775000000     1.252000000    -0.860000000
O    -3.738000000     5.123000000    -3.159000000
H    -3.670000000     4.537000000    -2.405000000
H    -4.544000000     5.617000000    -3.006000000
O    -1.952000000     2.262000000    -5.161000000
H    -1.251000000     1.616000000    -5.082000000
H    -1.850000000     2.620000000    -6.042000000
O     3.367000000    -3.094000000    -3.003000000
H     2.440000000    -3.142000000    -2.771000000
H     3.807000000    -2.861000000    -2.185000000
O     5.042000000     0.634000000     2.242000000
H     5.968000000     0.568000000     2.007000000
H     4.899000000    -0.084000000     2.859000000
O    -5.744000000    -2.412000000     0.452000000
H    -6.642000000    -2.717000000     0.318000000
H    -5.510000000    -2.731000000     1.324000000
O     0.288000000    -0.505000000     4.115000000
H    -0.233000000    -0.331000000     3.331000000
H     0.973000000     0.162000000     4.100000000
O    -0.289000000     2.921000000    -2.214000000
H    -1.222000000     3.099000000    -2.337000000
H    -0.250000000     2.383000000    -1.424000000
O    -1.164000000     6.248000000     0.841000000
H    -0.583000000     6.066000000     0.102000000
H    -0.999000000     5.534000000     1.457000000
O     3.225000000    -4.316000000     1.406000000
H     2.990000000    -4.692000000     2.254000000
H     2.391000000    -4.226000000     0.944000000
O    -1.855000000     1.147000000     5.873000000
H    -2.042000000     0.360000000     5.362000000
H    -0.933000000     1.063000000     6.115000000
O     1.172000000     4.246000000    -3.965000000
H     0.425000000     3.840000000    -3.526000000
H     1.558000000     3.540000000    -4.483000000
O    -1.917000000    -5.509000000    -2.864000000
H    -0.982000000    -5.472000000    -3.067000000
H    -2.090000000    -4.699000000    -2.384000000
O    -6.930000000    -0.022000000     0.552000000
H    -6.335000000    -0.761000000     0.421000000
H    -7.761000000    -0.316000000     0.180000000
O     3.509000000    -1.928000000     4.440000000
H     3.040000000    -1.115000000     4.250000000
H     4.218000000    -1.952000000     3.798000000
O    -3.064000000    -0.205000000    -5.349000000
H    -2.606000000    -0.965000000    -4.990000000
H    -2.469000000     0.529000000    -5.194000000
O     5.102000000    -4.141000000    -0.612000000
H     4.478000000    -4.194000000     0.112000000
H     5.865000000    -3.701000000    -0.238000000
O    -4.294000000     0.515000000     2.760000000
H    -5.083000000     0.024000000     2.986000000
H    -3.594000000    -0.138000000     2.774000000
O     0.473000000     8.629000000     1.532000000
H     0.206000000     7.719000000     1.401000000
H     1.225000000     8.744000000     0.951000000
O    -2.163000000    -1.331000000     2.264000000
H    -2.714000000    -1.952000000     1.789000000
H    -1.482000000    -1.086000000     1.637000000
O     2.638000000     5.537000000     2.008000000
H     3.553000000     5.477000000     1.733000000
H     2.652000000     5.305000000     2.937000000
O    -1.960000000    -2.488000000    -4.533000000
H    -2.305000000    -3.211000000    -5.057000000
H    -1.810000000    -2.868000000    -3.668000000
O    -3.471000000    -6.917000000    -0.148000000
H    -3.161000000    -6.752000000    -1.038000000
H    -4.407000000    -7.090000000    -0.248000000
O    -0.069000000     5.025000000     5.501000000
H    -0.935000000     4.714000000     5.237000000
H     0.053000000     5.839000000     5.013000000
O     0.218000000    -2.152000000    -6.097000000
H    -0.090000000    -2.495000000    -6.936000000
H    -0.479000000    -2.371000000    -5.479000000
O     1.836000000    -7.707000000    -2.852000000
H     2.151000000    -7.572000000    -1.958000000
H     1.336000000    -6.916000000    -3.052000000
O    -2.485000000     4.867000000     4.208000000
H    -3.231000000     4.658000000     4.772000000
H    -2.621000000     5.782000000     3.962000000
O     3.102000000     6.062000000    -1.190000000
H     3.220000000     6.871000000    -0.692000000
H     2.154000000     5.942000000    -1.231000000
O    -2.143000000    -4.467000000     1.026000000
H    -2.839000000    -4.318000000     1.666000000
H    -2.475000000    -5.172000000     0.471000000
O     5.144000000    -2.163000000     2.332000000
H     5.883000000    -2.767000000     2.257000000
H     4.489000000    -2.510000000     1.726000000
O     5.867000000    -3.289000000    -4.413000000
H     5.074000000    -3.301000000    -3.877000000
H     6.513000000    -3.769000000    -3.895000000
O     5.395000000     4.672000000     2.576000000
H     5.474000000     4.069000000     3.315000000
H     5.098000000     4.123000000     1.850000000
O     0.235000000     6.004000000    -1.411000000
H    -0.058000000     5.389000000    -2.084000000
H     0.174000000     6.863000000    -1.828000000
O     4.511000000     2.979000000     0.557000000
H     3.901000000     2.749000000    -0.144000000
H     4.619000000     2.169000000     1.056000000
O     0.724000000    -5.282000000    -3.488000000
H     0.823000000    -4.490000000    -2.958000000
H     1.275000000    -5.127000000    -4.255000000
O    -3.567000000     3.088000000     1.562000000
H    -3.900000000     2.203000000     1.713000000
H    -3.074000000     3.296000000     2.356000000
O    -3.338000000     3.299000000    -1.156000000
H    -3.917000000     2.543000000    -1.251000000
H    -3.193000000     3.374000000    -0.212000000
O     3.251000000    -0.038000000    -4.199000000
H     4.017000000     0.139000000    -4.745000000
H     3.358000000    -0.948000000    -3.923000000
O    -5.014000000    -0.813000000    -2.889000000
H    -5.727000000    -1.199000000    -3.397000000
H    -4.300000000    -1.448000000    -2.958000000
O     1.696000000    -5.106000000    -5.968000000
H     2.440000000    -5.702000000    -6.061000000
H     2.081000000    -4.232000000    -6.031000000
O    -4.000000000    -3.355000000    -1.461000000
H    -3.096000000    -3.100000000    -1.276000000
H    -4.526000000    -2.633000000    -1.118000000
O     2.525000000     0.870000000     4.059000000
H     3.351000000     0.908000000     3.577000000
H     2.277000000     1.786000000     4.183000000
O     2.593000000     2.019000000    -1.305000000
H     2.937000000     1.222000000    -1.708000000
H     2.072000000     2.430000000    -1.995000000
O    -5.045000000    -5.303000000    -3.033000000
H    -4.426000000    -4.654000000    -2.698000000
H    -5.685000000    -4.790000000    -3.528000000
