161
-3064.74034
C    -0.994000000     0.011000000     1.091000000
H    -1.776000000    -0.022000000     1.845000000
C    -0.931000000     0.948000000     0.072000000
H    -1.765000000     1.639000000    -0.020000000
C     0.028000000     0.801000000    -0.961000000
C    -0.103000000     1.593000000    -2.190000000
H     0.396000000     2.564000000    -2.201000000
H     0.365000000     1.041000000    -3.008000000
H    -1.111000000     1.742000000    -2.583000000
C     1.037000000    -0.155000000    -0.834000000
H     1.910000000    -0.155000000    -1.482000000
C     1.064000000    -0.950000000     0.354000000
H     1.887000000    -1.657000000     0.430000000
C     0.017000000    -0.906000000     1.281000000
C     0.009000000    -1.884000000     2.413000000
O     0.704000000    -2.885000000     2.385000000
O    -0.731000000    -1.725000000     3.402000000
O    -1.453000000     6.627000000    -3.708000000
H    -1.522000000     6.625000000    -2.753000000
H    -0.760000000     5.995000000    -3.899000000
O    -0.231000000    -7.020000000    -0.719000000
H    -0.178000000    -6.118000000    -0.405000000
H     0.222000000    -7.534000000    -0.050000000
O    -3.683000000     3.916000000    -0.921000000
H    -3.592000000     3.117000000    -1.441000000
H    -2.858000000     3.985000000    -0.442000000
O    -3.978000000     1.512000000     6.471000000
H    -4.775000000     1.375000000     5.959000000
H    -3.280000000     1.141000000     5.931000000
O     4.269000000     4.996000000    -3.071000000
H     4.991000000     5.623000000    -3.027000000
H     4.646000000     4.227000000    -3.499000000
O    -1.723000000     2.002000000    -6.416000000
H    -1.018000000     1.785000000    -5.806000000
H    -2.490000000     1.546000000    -6.068000000
O    -4.253000000     4.998000000     2.776000000
H    -4.450000000     4.122000000     2.445000000
H    -5.050000000     5.502000000     2.610000000
O    -0.327000000     2.603000000     6.116000000
H    -1.113000000     3.062000000     5.821000000
H    -0.441000000     1.706000000     5.800000000
O    -4.014000000     1.503000000    -1.892000000
H    -4.753000000     0.924000000    -1.707000000
H    -3.784000000     1.313000000    -2.802000000
O     4.693000000    -1.177000000     1.195000000
H     4.174000000    -1.849000000     1.637000000
H     5.279000000    -0.841000000     1.873000000
O    -3.635000000    -1.639000000     3.085000000
H    -3.822000000    -1.121000000     2.302000000
H    -2.684000000    -1.746000000     3.080000000
O     0.356000000     6.269000000    -1.339000000
H     0.635000000     5.897000000    -2.175000000
H     1.165000000     6.584000000    -0.935000000
O    -4.174000000     0.459000000     1.355000000
H    -4.103000000     0.582000000     0.408000000
H    -5.116000000     0.424000000     1.522000000
O     1.639000000    -2.530000000     5.207000000
H     1.807000000    -1.638000000     5.510000000
H     1.375000000    -2.426000000     4.292000000
O    -4.241000000    -2.750000000     5.486000000
H    -4.101000000    -2.428000000     4.595000000
H    -3.580000000    -2.297000000     6.010000000
O     1.728000000     5.375000000    -3.746000000
H     1.637000000     4.564000000    -4.246000000
H     2.634000000     5.366000000    -3.438000000
O    -0.853000000    -4.874000000     3.554000000
H    -0.375000000    -5.058000000     4.362000000
H    -0.464000000    -4.063000000     3.226000000
O     3.553000000    -5.196000000     0.159000000
H     4.464000000    -5.420000000    -0.034000000
H     3.185000000    -4.941000000    -0.687000000
O    -1.189000000     4.260000000     0.090000000
H    -1.263000000     4.303000000     1.044000000
H    -0.456000000     4.838000000    -0.119000000
O    -1.142000000     0.387000000     4.904000000
H    -0.863000000    -0.400000000     4.436000000
H    -1.524000000     0.945000000     4.226000000
O     1.527000000     1.625000000     2.563000000
H     2.031000000     1.336000000     1.803000000
H     1.320000000     0.818000000     3.034000000
O    -2.813000000     1.922000000     3.076000000
H    -3.600000000     2.080000000     3.598000000
H    -3.133000000     1.480000000     2.289000000
O     2.674000000    -6.755000000     2.272000000
H     3.021000000    -6.329000000     1.489000000
H     2.260000000    -6.047000000     2.766000000
O    -1.626000000    -1.619000000    -4.608000000
H    -2.027000000    -1.864000000    -3.774000000
H    -1.179000000    -2.413000000    -4.901000000
O    -0.043000000    -0.092000000    -8.147000000
H     0.763000000     0.276000000    -8.509000000
H    -0.036000000     0.174000000    -7.228000000
O     1.987000000     3.316000000    -5.379000000
H     1.969000000     3.645000000    -6.277000000
H     2.918000000     3.246000000    -5.168000000
O     2.220000000    -5.164000000     4.942000000
H     2.295000000    -5.445000000     5.854000000
H     1.969000000    -4.242000000     4.995000000
O     3.556000000     1.824000000     0.710000000
H     3.804000000     0.990000000     0.310000000
H     4.367000000     2.155000000     1.096000000
O    -1.220000000    -4.754000000     6.753000000
H    -1.882000000    -5.083000000     7.361000000
H    -1.722000000    -4.298000000     6.078000000
O    -3.201000000    -3.052000000     0.362000000
H    -3.959000000    -2.479000000     0.248000000
H    -3.517000000    -3.758000000     0.927000000
O    -2.259000000    -2.013000000    -1.990000000
H    -1.983000000    -1.159000000    -1.659000000
H    -2.627000000    -2.458000000    -1.227000000
O    -1.783000000    -1.710000000     6.833000000
H    -1.177000000    -1.143000000     7.311000000
H    -1.293000000    -1.986000000     6.059000000
O    -5.751000000     1.521000000     4.571000000
H    -5.799000000     1.053000000     3.737000000
H    -6.618000000     1.913000000     4.675000000
O     3.313000000    -3.804000000    -2.219000000
H     2.683000000    -3.112000000    -2.417000000
H     4.040000000    -3.350000000    -1.792000000
O     5.244000000    -2.409000000    -1.208000000
H     6.176000000    -2.590000000    -1.328000000
H     5.205000000    -1.855000000    -0.428000000
O    -3.128000000     0.514000000    -4.353000000
H    -3.773000000     0.089000000    -4.920000000
H    -2.403000000    -0.109000000    -4.306000000
O     0.124000000    -4.531000000     0.024000000
H     0.637000000    -4.090000000     0.701000000
H    -0.784000000    -4.309000000     0.230000000
O     0.737000000     0.647000000    -5.671000000
H     1.180000000    -0.073000000    -5.222000000
H     1.109000000     1.438000000    -5.281000000
O    -5.282000000    -1.673000000    -0.702000000
H    -5.917000000    -2.377000000    -0.571000000
H    -5.676000000    -1.117000000    -1.374000000
O    -0.883000000     3.939000000     2.735000000
H    -1.564000000     3.355000000     3.069000000
H    -0.180000000     3.353000000     2.456000000
O     3.395000000    -3.442000000     2.376000000
H     3.572000000    -4.034000000     1.644000000
H     2.457000000    -3.259000000     2.315000000
O     5.218000000    -0.563000000    -4.322000000
H     5.284000000    -1.467000000    -4.013000000
H     4.363000000    -0.519000000    -4.750000000
O    -6.316000000     2.784000000    -0.303000000
H    -5.383000000     2.994000000    -0.280000000
H    -6.754000000     3.632000000    -0.230000000
O     4.901000000    -4.341000000     4.256000000
H     4.274000000    -5.000000000     4.553000000
H     4.397000000    -3.779000000     3.666000000
O     5.543000000     2.248000000    -3.916000000
H     5.857000000     2.372000000    -4.812000000
H     5.510000000     1.298000000    -3.803000000
O     0.646000000    -3.021000000    -2.627000000
H     0.010000000    -2.487000000    -2.151000000
H     0.690000000    -3.839000000    -2.133000000
O     2.140000000    -1.597000000    -4.978000000
H     1.601000000    -2.115000000    -4.380000000
H     2.511000000    -2.239000000    -5.583000000
O    -3.126000000    -5.214000000     2.199000000
H    -2.305000000    -5.075000000     2.670000000
H    -3.791000000    -5.265000000     2.885000000
