161
-3065.08054
C     1.048000000     1.032000000    -0.195000000
H     1.872000000     1.729000000    -0.326000000
C     1.014000000     0.135000000     0.887000000
H     1.719000000     0.145000000     1.715000000
C    -0.056000000    -0.766000000     0.949000000
C    -0.009000000    -1.883000000     2.022000000
H    -0.689000000    -1.750000000     2.867000000
H    -0.320000000    -2.802000000     1.520000000
H     0.960000000    -1.903000000     2.525000000
C    -0.997000000    -0.791000000    -0.037000000
H    -1.822000000    -1.498000000     0.000000000
C    -1.013000000     0.154000000    -1.051000000
H    -1.873000000     0.165000000    -1.716000000
C     0.041000000     1.082000000    -1.169000000
C     0.027000000     2.078000000    -2.343000000
O    -0.907000000     2.058000000    -3.128000000
O     1.010000000     2.810000000    -2.525000000
O     3.497000000     0.886000000    -6.423000000
H     3.103000000     1.424000000    -5.736000000
H     4.143000000     1.460000000    -6.835000000
O     2.184000000    -1.841000000    -3.017000000
H     1.852000000    -1.960000000    -2.127000000
H     1.518000000    -2.240000000    -3.576000000
O     0.992000000    -4.501000000     3.784000000
H     0.896000000    -3.971000000     4.575000000
H     1.897000000    -4.357000000     3.507000000
O    -2.745000000    -0.428000000     4.581000000
H    -1.811000000    -0.594000000     4.451000000
H    -3.042000000    -0.063000000     3.748000000
O    -0.983000000     4.304000000    -4.676000000
H    -0.833000000     4.079000000    -5.594000000
H    -0.917000000     3.470000000    -4.212000000
O     4.754000000     5.153000000    -3.135000000
H     4.737000000     6.013000000    -2.714000000
H     4.435000000     4.551000000    -2.462000000
O    -4.624000000     3.262000000    -6.191000000
H    -4.296000000     4.160000000    -6.168000000
H    -4.263000000     2.855000000    -5.403000000
O    -0.547000000     5.460000000     2.049000000
H     0.303000000     5.412000000     1.611000000
H    -0.971000000     6.228000000     1.666000000
O     1.550000000     2.680000000    -5.302000000
H     1.162000000     2.816000000    -4.437000000
H     0.938000000     2.096000000    -5.749000000
O    -5.268000000    -4.495000000     1.062000000
H    -4.386000000    -4.283000000     1.369000000
H    -5.679000000    -4.939000000     1.804000000
O     4.686000000    -2.537000000     1.489000000
H     3.928000000    -3.120000000     1.453000000
H     5.193000000    -2.850000000     2.239000000
O    -4.840000000     0.967000000    -2.953000000
H    -4.885000000     0.244000000    -2.327000000
H    -5.731000000     1.314000000    -2.983000000
O    -3.256000000    -3.122000000    -1.970000000
H    -3.988000000    -3.402000000    -2.518000000
H    -3.600000000    -2.381000000    -1.471000000
O    -2.562000000     3.592000000     1.076000000
H    -1.775000000     4.024000000     1.406000000
H    -2.431000000     2.666000000     1.279000000
O    -0.141000000    -3.104000000    -4.397000000
H    -0.704000000    -2.398000000    -4.080000000
H    -0.122000000    -3.735000000    -3.677000000
O    -4.990000000    -0.529000000    -0.448000000
H    -4.625000000    -0.179000000     0.365000000
H    -5.875000000    -0.168000000    -0.488000000
O     4.700000000     1.567000000     4.463000000
H     4.148000000     2.337000000     4.325000000
H     5.181000000     1.757000000     5.268000000
O     0.214000000     2.163000000     5.052000000
H     0.359000000     1.860000000     5.949000000
H     0.612000000     3.033000000     5.027000000
O    -0.264000000     0.490000000    -5.997000000
H    -1.213000000     0.394000000    -5.913000000
H     0.007000000    -0.263000000    -6.522000000
O    -1.380000000    -6.528000000     0.438000000
H    -1.499000000    -7.402000000     0.811000000
H    -1.391000000    -5.942000000     1.195000000
O     2.664000000    -0.118000000     6.153000000
H     3.284000000     0.366000000     5.607000000
H     3.136000000    -0.273000000     6.971000000
O     3.675000000     2.831000000    -1.952000000
H     4.102000000     2.121000000    -2.433000000
H     2.742000000     2.712000000    -2.127000000
O    -5.424000000    -0.656000000     5.268000000
H    -5.579000000    -0.930000000     4.364000000
H    -4.477000000    -0.524000000     5.319000000
O    -2.721000000    -0.076000000    -4.622000000
H    -2.200000000     0.528000000    -4.093000000
H    -3.629000000     0.157000000    -4.429000000
O     5.240000000     0.540000000     2.141000000
H     5.115000000     0.743000000     3.068000000
H     4.978000000    -0.377000000     2.060000000
O    -3.373000000    -3.200000000     2.946000000
H    -2.655000000    -3.827000000     2.859000000
H    -3.687000000    -3.318000000     3.843000000
O     4.504000000     0.429000000    -3.307000000
H     3.649000000     0.160000000    -3.644000000
H     4.670000000    -0.164000000    -2.575000000
O     2.237000000    -4.278000000     1.181000000
H     1.714000000    -5.061000000     1.010000000
H     1.792000000    -3.583000000     0.695000000
O    -4.869000000     5.367000000    -3.217000000
H    -4.752000000     5.384000000    -2.267000000
H    -4.571000000     4.496000000    -3.479000000
O    -4.599000000     4.286000000    -0.672000000
H    -5.044000000     4.928000000    -0.119000000
H    -3.816000000     4.045000000    -0.177000000
O     2.286000000     5.256000000    -5.775000000
H     3.235000000     5.177000000    -5.870000000
H     1.968000000     4.353000000    -5.778000000
O    -5.644000000    -1.401000000     2.721000000
H    -6.123000000    -1.335000000     1.895000000
H    -4.851000000    -1.888000000     2.500000000
O    -1.215000000     6.959000000    -5.425000000
H    -0.846000000     6.313000000    -4.823000000
H    -0.492000000     7.179000000    -6.013000000
O    -0.322000000    -4.121000000    -1.676000000
H    -0.321000000    -3.232000000    -1.322000000
H    -1.249000000    -4.353000000    -1.738000000
O    -3.079000000    -2.874000000    -5.536000000
H    -2.249000000    -3.230000000    -5.853000000
H    -2.974000000    -1.925000000    -5.606000000
O    -3.485000000     2.982000000    -3.491000000
H    -2.560000000     2.779000000    -3.348000000
H    -3.956000000     2.343000000    -2.957000000
O     1.671000000    -2.663000000     5.751000000
H     1.819000000    -1.720000000     5.682000000
H     2.429000000    -2.990000000     6.235000000
O    -3.389000000     0.886000000     1.908000000
H    -3.900000000     1.423000000     2.513000000
H    -2.479000000     1.126000000     2.085000000
O    -0.035000000     7.568000000    -2.020000000
H     0.667000000     6.938000000    -2.187000000
H    -0.832000000     7.116000000    -2.296000000
O    -1.050000000     1.784000000     2.796000000
H    -0.359000000     1.740000000     2.135000000
H    -0.586000000     1.733000000     3.632000000
O     3.661000000     3.175000000     0.836000000
H     4.139000000     2.498000000     1.314000000
H     4.148000000     3.280000000     0.019000000
O     1.777000000     5.471000000    -2.504000000
H     2.517000000     5.509000000    -3.111000000
H     1.404000000     4.599000000    -2.634000000
O    -6.367000000     2.440000000    -1.437000000
H    -5.584000000     2.945000000    -1.218000000
H    -6.611000000     2.009000000    -0.617000000
O     1.472000000    -6.627000000     0.125000000
H     0.559000000    -6.599000000     0.412000000
H     1.421000000    -6.727000000    -0.825000000
O     4.999000000    -0.292000000    -0.804000000
H     5.455000000     0.547000000    -0.733000000
H     4.972000000    -0.627000000     0.092000000
O    -1.908000000     5.944000000    -2.481000000
H    -1.407000000     5.222000000    -2.860000000
H    -2.816000000     5.641000000    -2.500000000
O     1.695000000     5.248000000     0.355000000
H     1.693000000     5.323000000    -0.599000000
H     2.327000000     4.553000000     0.539000000
O    -1.468000000    -5.330000000     2.767000000
H    -1.739000000    -5.722000000     3.598000000
H    -0.614000000    -4.939000000     2.954000000
