161
-3019.59772
C    -1.230000000    -0.461000000    -0.693000000
H    -2.197000000    -0.734000000    -1.107000000
C    -1.128000000     0.084000000     0.600000000
H    -2.121000000     0.221000000     1.020000000
C     0.038000000     0.554000000     1.132000000
C     0.096000000     1.177000000     2.510000000
H     0.892000000     1.918000000     2.609000000
H    -0.907000000     1.559000000     2.713000000
H     0.210000000     0.289000000     3.135000000
C     1.208000000     0.423000000     0.321000000
H     2.140000000     0.834000000     0.700000000
C     1.184000000    -0.275000000    -0.900000000
H     2.157000000    -0.400000000    -1.368000000
C    -0.035000000    -0.661000000    -1.417000000
C    -0.110000000    -1.403000000    -2.675000000
O     0.902000000    -1.860000000    -3.147000000
O    -1.104000000    -1.262000000    -3.436000000
O    -2.959000000    -3.093000000    -2.416000000
H    -3.549000000    -2.977000000    -3.161000000
H    -2.226000000    -2.505000000    -2.598000000
O    -5.362000000    -1.468000000     2.272000000
H    -5.859000000    -1.391000000     3.086000000
H    -4.578000000    -1.961000000     2.515000000
O     3.929000000     2.654000000     6.787000000
H     3.331000000     2.163000000     6.223000000
H     3.587000000     2.522000000     7.672000000
O     2.048000000    -3.512000000     0.949000000
H     1.603000000    -3.958000000     0.228000000
H     1.339000000    -3.158000000     1.485000000
O     0.437000000     5.030000000     3.818000000
H     0.491000000     5.910000000     3.447000000
H     1.220000000     4.950000000     4.362000000
O    -2.247000000    -5.004000000     0.808000000
H    -2.118000000    -5.162000000    -0.127000000
H    -2.051000000    -5.844000000     1.223000000
O    -0.522000000    -2.862000000    -6.003000000
H    -0.293000000    -2.251000000    -5.303000000
H     0.237000000    -3.442000000    -6.073000000
O    -5.222000000     3.081000000    -1.442000000
H    -5.218000000     2.311000000    -2.012000000
H    -5.073000000     2.730000000    -0.565000000
O     1.266000000     3.800000000    -0.676000000
H     0.593000000     3.683000000    -0.005000000
H     1.554000000     2.911000000    -0.883000000
O     2.314000000    -0.761000000    -5.130000000
H     3.186000000    -1.156000000    -5.170000000
H     1.890000000    -1.194000000    -4.389000000
O    -0.858000000     4.373000000     1.061000000
H    -1.395000000     5.165000000     1.072000000
H    -0.206000000     4.516000000     1.747000000
O    -3.933000000     2.108000000     3.161000000
H    -3.349000000     2.003000000     3.912000000
H    -4.810000000     2.146000000     3.543000000
O     0.645000000    -2.381000000     3.882000000
H     1.367000000    -1.863000000     4.239000000
H     0.472000000    -1.993000000     3.025000000
O    -0.750000000    -2.762000000     1.330000000
H    -1.275000000    -3.562000000     1.367000000
H    -1.270000000    -2.159000000     0.799000000
O    -1.683000000    -5.495000000    -1.989000000
H    -1.980000000    -6.273000000    -2.461000000
H    -2.424000000    -4.891000000    -2.032000000
O     0.428000000    -5.026000000     3.821000000
H    -0.070000000    -5.300000000     4.591000000
H     0.206000000    -4.102000000     3.709000000
O     5.174000000     2.341000000    -2.601000000
H     5.237000000     2.220000000    -3.549000000
H     5.557000000     3.204000000    -2.444000000
O     6.259000000     3.747000000     2.903000000
H     5.889000000     4.614000000     3.073000000
H     5.503000000     3.202000000     2.688000000
O     2.460000000     1.754000000    -3.550000000
H     2.323000000     0.831000000    -3.763000000
H     3.348000000     1.788000000    -3.195000000
O    -4.799000000    -2.771000000    -4.726000000
H    -4.586000000    -3.666000000    -4.992000000
H    -5.756000000    -2.742000000    -4.727000000
O     5.053000000    -1.116000000     1.692000000
H     4.548000000    -1.552000000     1.006000000
H     5.940000000    -1.462000000     1.593000000
O    -5.702000000     1.035000000    -3.345000000
H    -6.278000000     0.311000000    -3.589000000
H    -4.818000000     0.684000000    -3.451000000
O    -3.663000000    -0.404000000    -3.874000000
H    -4.148000000    -1.129000000    -4.269000000
H    -2.755000000    -0.706000000    -3.856000000
O     0.352000000     3.442000000     6.033000000
H    -0.057000000     3.945000000     6.737000000
H     0.155000000     3.939000000     5.239000000
O    -2.640000000    -3.677000000    -7.487000000
H    -1.942000000    -3.369000000    -6.910000000
H    -3.155000000    -2.894000000    -7.679000000
O    -1.907000000     2.655000000    -1.242000000
H    -1.561000000     1.782000000    -1.059000000
H    -1.944000000     3.083000000    -0.386000000
O    -3.722000000     4.566000000     5.428000000
H    -4.188000000     4.465000000     4.598000000
H    -3.349000000     3.701000000     5.600000000
O     2.403000000    -4.429000000    -5.405000000
H     2.519000000    -4.010000000    -4.552000000
H     2.578000000    -5.355000000    -5.243000000
O     1.885000000     1.432000000     5.701000000
H     1.164000000     2.062000000     5.707000000
H     1.909000000     1.105000000     4.801000000
O    -3.221000000     2.589000000    -4.228000000
H    -2.932000000     2.706000000    -3.323000000
H    -3.557000000     1.693000000    -4.257000000
O    -1.174000000    -0.429000000     5.900000000
H    -0.830000000    -1.149000000     5.372000000
H    -0.927000000    -0.652000000     6.798000000
O     3.694000000     5.446000000    -0.641000000
H     4.558000000     5.084000000    -0.837000000
H     3.143000000     4.680000000    -0.481000000
O     5.800000000    -1.109000000    -5.160000000
H     6.694000000    -0.784000000    -5.059000000
H     5.478000000    -1.208000000    -4.264000000
O    -2.648000000    -2.969000000     3.481000000
H    -1.828000000    -2.793000000     3.020000000
H    -2.809000000    -3.901000000     3.336000000
O     3.069000000    -0.706000000     4.084000000
H     3.435000000    -0.962000000     3.237000000
H     3.724000000    -0.988000000     4.722000000
O    -4.306000000     4.612000000     2.126000000
H    -3.824000000     3.824000000     2.378000000
H    -5.176000000     4.294000000     1.883000000
O    -4.592000000     1.170000000     0.616000000
H    -4.208000000     1.507000000     1.425000000
H    -5.142000000     0.439000000     0.898000000
O    -2.767000000     1.824000000     5.687000000
H    -2.491000000     2.224000000     6.511000000
H    -2.020000000     1.289000000     5.418000000
O     2.764000000    -3.637000000    -2.747000000
H     2.447000000    -4.243000000    -2.077000000
H     2.067000000    -2.986000000    -2.830000000
O    -1.288000000    -0.498000000    -7.312000000
H    -0.868000000    -1.319000000    -7.058000000
H    -1.038000000     0.121000000    -6.626000000
O     1.860000000    -1.569000000    -7.717000000
H     2.798000000    -1.438000000    -7.856000000
H     1.748000000    -1.508000000    -6.768000000
O     4.896000000    -1.965000000    -2.793000000
H     4.873000000    -1.523000000    -1.945000000
H     4.253000000    -2.670000000    -2.713000000
O     1.960000000    -0.029000000     7.859000000
H     2.110000000     0.454000000     7.046000000
H     1.116000000     0.293000000     8.176000000
O     4.320000000     1.726000000     2.446000000
H     4.611000000     0.884000000     2.097000000
H     3.719000000     1.497000000     3.155000000
O    -0.381000000     0.671000000    -5.089000000
H     0.549000000     0.537000000    -4.905000000
H    -0.831000000     0.287000000    -4.336000000
O     0.938000000    -5.648000000    -1.284000000
H     0.037000000    -5.559000000    -1.597000000
H     1.031000000    -6.580000000    -1.085000000
O     4.777000000     0.171000000    -1.064000000
H     4.698000000     0.654000000    -0.241000000
H     5.079000000     0.823000000    -1.696000000
O    -5.092000000    -3.465000000    -0.493000000
H    -5.370000000    -4.325000000    -0.809000000
H    -4.436000000    -3.177000000    -1.128000000
