161
-3033.79472
C    -1.374000000    -0.414000000    -0.202000000
H    -2.451000000    -0.542000000    -0.140000000
C    -0.812000000     0.054000000     0.959000000
H    -1.533000000     0.213000000     1.758000000
C     0.550000000     0.269000000     1.065000000
C     1.018000000     0.706000000     2.449000000
H     2.040000000     0.337000000     2.554000000
H     1.084000000     1.792000000     2.538000000
H     0.488000000     0.223000000     3.273000000
C     1.362000000     0.198000000    -0.086000000
H     2.440000000     0.340000000    -0.118000000
C     0.753000000    -0.161000000    -1.287000000
H     1.309000000    -0.125000000    -2.220000000
C    -0.604000000    -0.511000000    -1.386000000
C    -1.256000000    -0.721000000    -2.706000000
O    -0.579000000    -0.923000000    -3.713000000
O    -2.440000000    -0.732000000    -2.746000000
O     0.126000000    -4.351000000    -4.084000000
H     0.360000000    -5.223000000    -4.401000000
H    -0.242000000    -4.504000000    -3.213000000
O    -2.873000000    -3.526000000     0.313000000
H    -3.142000000    -4.392000000     0.009000000
H    -3.314000000    -2.916000000    -0.278000000
O     2.615000000     3.956000000     3.901000000
H     2.279000000     3.590000000     4.719000000
H     3.117000000     4.725000000     4.171000000
O     1.643000000     3.062000000     6.414000000
H     0.810000000     2.592000000     6.460000000
H     1.570000000     3.743000000     7.082000000
O     4.693000000     0.021000000     4.538000000
H     3.960000000    -0.001000000     3.922000000
H     5.371000000    -0.510000000     4.122000000
O    -0.656000000    -4.659000000     1.247000000
H    -1.161000000    -5.401000000     1.580000000
H    -1.270000000    -4.184000000     0.687000000
O    -1.539000000     4.372000000     4.592000000
H    -0.944000000     3.661000000     4.831000000
H    -1.136000000     5.157000000     4.965000000
O    -3.792000000    -2.279000000    -6.331000000
H    -2.998000000    -1.750000000    -6.412000000
H    -3.756000000    -2.630000000    -5.441000000
O    -5.881000000     0.137000000     1.358000000
H    -6.210000000    -0.754000000     1.239000000
H    -6.229000000     0.410000000     2.206000000
O    -1.839000000     2.798000000    -0.006000000
H    -2.001000000     2.993000000     0.917000000
H    -1.210000000     2.076000000     0.009000000
O     1.416000000     1.526000000    -4.423000000
H     0.634000000     2.078000000    -4.454000000
H     1.084000000     0.634000000    -4.530000000
O    -2.731000000     3.031000000     2.471000000
H    -3.629000000     2.963000000     2.796000000
H    -2.268000000     3.521000000     3.150000000
O     5.459000000     2.422000000    -1.971000000
H     6.145000000     1.838000000    -1.648000000
H     5.170000000     2.023000000    -2.792000000
O    -1.632000000    -0.622000000     4.666000000
H    -2.205000000    -0.994000000     5.337000000
H    -1.979000000    -0.961000000     3.840000000
O    -4.209000000    -1.858000000    -1.357000000
H    -5.027000000    -1.920000000    -1.850000000
H    -3.632000000    -1.337000000    -1.915000000
O    -2.640000000    -2.423000000     2.783000000
H    -3.355000000    -2.990000000     3.071000000
H    -2.432000000    -2.727000000     1.900000000
O    -4.098000000    -5.713000000    -3.489000000
H    -3.820000000    -6.037000000    -4.345000000
H    -3.610000000    -4.899000000    -3.371000000
O     1.681000000     3.344000000    -1.904000000
H     1.971000000     2.438000000    -1.799000000
H     2.149000000     3.657000000    -2.678000000
O     4.296000000     2.417000000     2.215000000
H     3.866000000     2.764000000     2.997000000
H     4.016000000     3.000000000     1.509000000
O    -2.410000000     3.238000000    -2.950000000
H    -1.877000000     2.528000000    -3.309000000
H    -2.147000000     3.295000000    -2.032000000
O    -6.537000000    -1.998000000    -2.302000000
H    -6.725000000    -2.546000000    -3.064000000
H    -7.357000000    -1.984000000    -1.808000000
O     3.863000000    -2.078000000     0.179000000
H     3.164000000    -2.725000000     0.085000000
H     4.657000000    -2.542000000    -0.085000000
O    -1.020000000     2.073000000    -5.554000000
H    -1.658000000     1.360000000    -5.548000000
H    -0.611000000     2.021000000    -6.418000000
O     7.142000000     2.099000000     1.900000000
H     6.186000000     2.087000000     1.952000000
H     7.339000000     2.808000000     1.288000000
O    -3.740000000     0.827000000    -4.404000000
H    -4.606000000     0.997000000    -4.033000000
H    -3.326000000     0.230000000    -3.780000000
O     2.855000000    -3.184000000     6.831000000
H     2.128000000    -3.284000000     7.446000000
H     2.598000000    -2.449000000     6.275000000
O    -4.374000000     1.966000000    -0.702000000
H    -4.561000000     1.254000000    -0.089000000
H    -3.479000000     2.232000000    -0.494000000
O     3.010000000     2.563000000    -6.312000000
H     2.438000000     2.242000000    -5.614000000
H     2.465000000     3.175000000    -6.806000000
O    -2.669000000    -3.251000000    -3.743000000
H    -2.606000000    -2.375000000    -3.364000000
H    -1.826000000    -3.385000000    -4.176000000
O    -1.105000000     1.641000000     6.249000000
H    -1.965000000     2.000000000     6.467000000
H    -1.296000000     0.872000000     5.712000000
O     5.147000000     4.494000000     0.008000000
H     6.097000000     4.605000000     0.043000000
H     5.005000000     3.855000000    -0.690000000
O    -4.189000000     3.241000000    -5.808000000
H    -3.845000000     3.733000000    -5.063000000
H    -3.923000000     2.336000000    -5.641000000
O     0.690000000     5.176000000     2.244000000
H     1.561000000     4.915000000     2.543000000
H     0.101000000     4.896000000     2.944000000
O     3.563000000     0.015000000     7.203000000
H     3.950000000     0.084000000     6.330000000
H     2.640000000    -0.178000000     7.041000000
O     0.089000000     5.295000000    -0.513000000
H     0.509000000     4.501000000    -0.843000000
H     0.473000000     5.427000000     0.354000000
O     2.111000000    -4.479000000     0.167000000
H     1.175000000    -4.347000000     0.319000000
H     2.172000000    -5.360000000    -0.201000000
O    -6.106000000     1.933000000    -2.771000000
H    -5.423000000     1.809000000    -2.111000000
H    -6.007000000     2.844000000    -3.049000000
O     1.523000000    -1.594000000     5.345000000
H     0.713000000    -1.133000000     5.563000000
H     1.301000000    -2.120000000     4.578000000
O     3.973000000    -4.372000000    -4.214000000
H     4.847000000    -4.095000000    -4.489000000
H     3.462000000    -3.562000000    -4.190000000
O     1.010000000    -3.443000000     3.474000000
H     0.579000000    -3.503000000     2.621000000
H     0.418000000    -3.898000000     4.074000000
O     0.569000000    -2.753000000    -7.265000000
H     0.110000000    -3.577000000    -7.099000000
H     0.996000000    -2.545000000    -6.434000000
O     1.683000000    -2.025000000    -4.925000000
H     1.738000000    -2.956000000    -4.710000000
H     1.185000000    -1.641000000    -4.203000000
O     4.524000000    -0.879000000    -4.605000000
H     4.651000000    -0.656000000    -3.683000000
H     3.574000000    -0.875000000    -4.724000000
O    -0.120000000    -0.205000000     8.308000000
H    -0.233000000     0.387000000     7.565000000
H    -0.299000000     0.338000000     9.076000000
O     3.565000000    -2.706000000     3.007000000
H     3.683000000    -2.617000000     2.061000000
H     2.616000000    -2.686000000     3.132000000
O    -1.259000000    -0.836000000    -6.143000000
H    -0.501000000    -1.099000000    -6.665000000
H    -0.947000000    -0.862000000    -5.238000000
O     4.667000000    -0.449000000    -1.914000000
H     4.172000000    -1.035000000    -1.342000000
H     5.526000000    -0.376000000    -1.498000000
O    -5.754000000    -2.895000000     1.305000000
H    -6.247000000    -3.468000000     0.718000000
H    -4.915000000    -2.764000000     0.864000000
