161
-3041.26414
C     1.233000000     0.598000000    -0.592000000
H     2.152000000     1.136000000    -0.811000000
C     0.878000000     0.524000000     0.769000000
H     1.505000000     1.015000000     1.509000000
C    -0.335000000    -0.052000000     1.200000000
C    -0.741000000     0.122000000     2.570000000
H    -1.276000000    -0.761000000     2.927000000
H     0.151000000     0.071000000     3.196000000
H    -1.402000000     0.973000000     2.745000000
C    -1.077000000    -0.748000000     0.290000000
H    -2.023000000    -1.182000000     0.602000000
C    -0.707000000    -0.755000000    -1.052000000
H    -1.345000000    -1.243000000    -1.784000000
C     0.416000000    -0.018000000    -1.477000000
C     0.749000000     0.124000000    -2.974000000
O     0.079000000    -0.542000000    -3.725000000
O     1.737000000     0.731000000    -3.393000000
O    -2.128000000    -2.339000000     5.657000000
H    -2.456000000    -2.914000000     6.349000000
H    -2.678000000    -1.558000000     5.713000000
O     4.683000000     3.315000000    -6.046000000
H     4.164000000     3.178000000    -5.254000000
H     4.817000000     4.262000000    -6.083000000
O     0.143000000     1.533000000     6.423000000
H    -0.439000000     0.799000000     6.616000000
H     0.714000000     1.594000000     7.189000000
O    -1.148000000    -3.902000000    -5.478000000
H    -1.153000000    -4.779000000    -5.094000000
H    -1.635000000    -3.365000000    -4.852000000
O     0.560000000    -1.710000000     7.301000000
H     0.339000000    -2.511000000     6.826000000
H    -0.231000000    -1.173000000     7.244000000
O    -5.355000000     2.240000000     5.314000000
H    -5.382000000     2.726000000     4.490000000
H    -6.071000000     1.609000000     5.243000000
O     4.290000000    -2.825000000     1.108000000
H     5.047000000    -3.012000000     0.555000000
H     3.554000000    -2.771000000     0.498000000
O    -2.201000000    -1.837000000    -4.037000000
H    -2.810000000    -1.424000000    -4.650000000
H    -1.443000000    -1.253000000    -4.022000000
O    -1.801000000     0.004000000     7.503000000
H    -1.948000000     0.705000000     8.139000000
H    -2.397000000     0.205000000     6.782000000
O     2.379000000     0.205000000     7.856000000
H     3.004000000     0.027000000     7.154000000
H     1.600000000    -0.298000000     7.617000000
O    -6.821000000    -2.956000000    -0.931000000
H    -6.593000000    -2.680000000    -1.819000000
H    -6.047000000    -2.747000000    -0.409000000
O    -3.456000000    -4.918000000    -0.146000000
H    -3.571000000    -3.981000000     0.011000000
H    -2.553000000    -5.000000000    -0.455000000
O     4.227000000     0.034000000     2.397000000
H     5.159000000    -0.123000000     2.247000000
H     3.791000000    -0.728000000     2.013000000
O    -3.507000000     3.286000000     6.647000000
H    -3.078000000     3.788000000     5.954000000
H    -4.184000000     2.783000000     6.194000000
O    -6.437000000    -1.226000000     2.085000000
H    -6.934000000    -0.526000000     1.663000000
H    -7.083000000    -1.691000000     2.617000000
O    -3.818000000     0.116000000     2.522000000
H    -3.853000000     0.201000000     1.569000000
H    -4.454000000    -0.570000000     2.724000000
O     1.865000000     3.910000000     1.567000000
H     1.286000000     3.661000000     2.288000000
H     2.238000000     3.082000000     1.262000000
O     2.780000000     3.090000000    -3.980000000
H     3.080000000     3.384000000    -3.120000000
H     2.401000000     2.226000000    -3.819000000
O     6.613000000     1.539000000    -5.479000000
H     5.957000000     1.162000000    -4.892000000
H     6.161000000     2.265000000    -5.909000000
O    -4.552000000    -3.849000000    -4.243000000
H    -4.445000000    -3.917000000    -5.192000000
H    -3.675000000    -3.999000000    -3.891000000
O     0.023000000     2.850000000    -4.849000000
H     0.410000000     1.976000000    -4.813000000
H     0.272000000     3.187000000    -5.710000000
O    -3.277000000     4.762000000     4.292000000
H    -4.142000000     5.120000000     4.096000000
H    -3.179000000     4.025000000     3.690000000
O     0.472000000     3.196000000     4.319000000
H     0.496000000     4.045000000     4.762000000
H     0.261000000     2.570000000     5.012000000
O    -0.983000000    -4.756000000    -1.923000000
H    -0.404000000    -4.252000000    -2.495000000
H    -0.401000000    -5.122000000    -1.256000000
O     3.353000000    -2.593000000    -1.627000000
H     3.977000000    -2.861000000    -2.301000000
H     2.498000000    -2.662000000    -2.052000000
O     3.794000000     2.276000000     0.969000000
H     3.599000000     1.545000000     1.556000000
H     4.188000000     2.940000000     1.536000000
O     0.253000000    -5.139000000     0.506000000
H     0.569000000    -4.645000000     1.263000000
H     0.538000000    -6.038000000     0.672000000
O     0.749000000    -3.226000000    -3.374000000
H     0.997000000    -3.787000000    -4.109000000
H     0.587000000    -2.370000000    -3.770000000
O    -2.225000000    -4.478000000     3.917000000
H    -1.422000000    -4.257000000     3.445000000
H    -2.343000000    -3.760000000     4.539000000
O    -1.736000000     2.262000000    -0.368000000
H    -1.223000000     3.012000000    -0.669000000
H    -1.171000000     1.506000000    -0.527000000
O    -1.065000000     4.188000000     2.231000000
H    -0.519000000     3.619000000     2.773000000
H    -1.701000000     3.596000000     1.828000000
O    -3.910000000     2.749000000     2.734000000
H    -4.699000000     2.974000000     2.241000000
H    -3.890000000     1.792000000     2.730000000
O    -3.170000000     0.267000000     5.225000000
H    -3.893000000     0.868000000     5.049000000
H    -3.037000000    -0.196000000     4.397000000
O     1.704000000    -1.861000000    -6.579000000
H     1.147000000    -1.138000000    -6.289000000
H     1.562000000    -2.548000000    -5.928000000
O     3.701000000     4.142000000    -1.617000000
H     2.931000000     4.316000000    -1.076000000
H     4.113000000     3.381000000    -1.209000000
O    -0.397000000     0.202000000    -6.364000000
H    -1.314000000     0.472000000    -6.417000000
H    -0.257000000     0.013000000    -5.436000000
O    -0.582000000     4.061000000    -2.509000000
H    -0.235000000     3.610000000    -3.278000000
H     0.089000000     4.707000000    -2.287000000
O     7.142000000     2.894000000    -1.836000000
H     6.609000000     2.099000000    -1.849000000
H     7.843000000     2.723000000    -2.464000000
O     1.440000000    -2.300000000     0.719000000
H     1.398000000    -1.359000000     0.550000000
H     0.743000000    -2.672000000     0.178000000
O    -4.608000000    -0.377000000    -4.959000000
H    -4.970000000    -0.026000000    -4.146000000
H    -4.778000000     0.303000000    -5.611000000
O     0.399000000    -3.725000000     2.961000000
H     0.803000000    -3.636000000     3.825000000
H     0.738000000    -2.983000000     2.460000000
O     3.662000000    -0.436000000    -7.557000000
H     2.966000000    -1.012000000    -7.241000000
H     3.215000000     0.196000000    -8.119000000
O     6.615000000     0.035000000    -0.660000000
H     6.514000000    -0.164000000     0.271000000
H     5.719000000     0.089000000    -0.993000000
O     4.126000000     0.600000000    -4.864000000
H     3.893000000     0.309000000    -5.745000000
H     3.333000000     1.021000000    -4.532000000
O     4.086000000    -0.098000000    -1.827000000
H     3.821000000    -1.017000000    -1.785000000
H     3.506000000     0.289000000    -2.484000000
O     3.999000000     0.828000000     5.143000000
H     4.663000000     1.516000000     5.186000000
H     4.008000000     0.543000000     4.229000000
O    -4.448000000    -1.947000000     0.349000000
H    -5.017000000    -1.649000000     1.059000000
H    -4.215000000    -1.147000000    -0.123000000
O    -4.093000000     0.906000000    -0.205000000
H    -3.176000000     1.181000000    -0.217000000
H    -4.478000000     1.317000000    -0.978000000
