161
-3036.55761
C     0.746000000    -0.760000000    -1.050000000
H     1.375000000    -1.299000000    -1.754000000
C     1.346000000    -0.157000000     0.076000000
H     2.414000000    -0.242000000     0.260000000
C     0.521000000     0.542000000     0.971000000
C     1.056000000     1.277000000     2.178000000
H     2.129000000     1.427000000     2.042000000
H     0.606000000     2.256000000     2.351000000
H     1.001000000     0.663000000     3.079000000
C    -0.860000000     0.642000000     0.733000000
H    -1.507000000     1.278000000     1.333000000
C    -1.437000000     0.003000000    -0.428000000
H    -2.463000000     0.205000000    -0.725000000
C    -0.615000000    -0.697000000    -1.270000000
C    -1.182000000    -1.437000000    -2.437000000
O    -2.379000000    -1.203000000    -2.667000000
O    -0.750000000    -2.503000000    -2.700000000
O     3.644000000    -4.814000000    -4.606000000
H     3.848000000    -4.471000000    -5.476000000
H     2.766000000    -4.483000000    -4.418000000
O    -3.423000000    -2.143000000    -5.309000000
H    -3.928000000    -2.892000000    -5.627000000
H    -3.137000000    -2.402000000    -4.433000000
O     5.022000000     1.495000000    -1.310000000
H     5.332000000     0.720000000    -0.840000000
H     4.208000000     1.212000000    -1.727000000
O    -2.357000000    -0.648000000     6.992000000
H    -1.436000000    -0.781000000     6.768000000
H    -2.614000000    -1.454000000     7.439000000
O    -2.850000000     3.200000000     2.717000000
H    -2.224000000     3.922000000     2.673000000
H    -2.598000000     2.711000000     3.500000000
O     5.695000000     0.506000000     5.797000000
H     5.014000000     0.691000000     5.150000000
H     5.218000000     0.187000000     6.563000000
O    -5.323000000    -3.692000000     0.656000000
H    -5.495000000    -3.480000000    -0.262000000
H    -4.468000000    -4.123000000     0.646000000
O    -0.099000000    -6.850000000    -2.739000000
H     0.151000000    -6.527000000    -3.605000000
H    -0.036000000    -6.084000000    -2.170000000
O     1.651000000    -0.362000000    -4.683000000
H     0.703000000    -0.495000000    -4.654000000
H     1.774000000     0.348000000    -5.313000000
O     2.410000000     3.621000000     5.780000000
H     1.474000000     3.786000000     5.668000000
H     2.837000000     4.385000000     5.393000000
O    -6.846000000    -1.536000000    -1.512000000
H    -6.888000000    -0.688000000    -1.071000000
H    -6.273000000    -1.386000000    -2.264000000
O    -6.900000000    -4.201000000    -3.371000000
H    -6.686000000    -5.122000000    -3.222000000
H    -6.138000000    -3.722000000    -3.046000000
O     4.009000000     0.532000000    -3.846000000
H     3.157000000     0.117000000    -3.975000000
H     3.845000000     1.465000000    -3.986000000
O    -1.728000000     1.813000000    -3.499000000
H    -2.329000000     2.473000000    -3.844000000
H    -2.273000000     1.264000000    -2.935000000
O     4.195000000    -3.217000000    -2.305000000
H     3.476000000    -3.358000000    -1.689000000
H     3.934000000    -3.697000000    -3.091000000
O     0.651000000     3.050000000    -4.502000000
H    -0.110000000     2.519000000    -4.267000000
H     0.286000000     3.794000000    -4.980000000
O     2.886000000     6.319000000     2.634000000
H     2.649000000     5.458000000     2.289000000
H     2.083000000     6.835000000     2.563000000
O    -5.073000000    -1.439000000     2.356000000
H    -5.126000000    -2.108000000     1.674000000
H    -4.931000000    -0.621000000     1.879000000
O    -0.373000000    -4.235000000     3.715000000
H     0.033000000    -4.773000000     4.395000000
H    -0.728000000    -3.481000000     4.186000000
O     1.183000000    -3.340000000    -4.392000000
H     0.452000000    -2.980000000    -3.889000000
H     1.551000000    -2.586000000    -4.853000000
O     1.833000000     1.366000000     7.384000000
H     1.732000000     1.785000000     8.239000000
H     2.219000000     2.043000000     6.829000000
O    -5.443000000     4.237000000     2.822000000
H    -4.538000000     3.942000000     2.921000000
H    -5.388000000     4.980000000     2.221000000
O     5.508000000     3.025000000     2.023000000
H     4.724000000     3.373000000     1.598000000
H     6.236000000     3.403000000     1.529000000
O    -0.164000000     4.305000000     5.305000000
H    -0.282000000     4.671000000     6.181000000
H    -0.646000000     4.899000000     4.730000000
O     2.797000000     4.082000000     0.730000000
H     3.037000000     4.706000000     0.045000000
H     2.303000000     3.402000000     0.271000000
O    -2.425000000    -4.439000000    -3.092000000
H    -1.583000000    -4.008000000    -2.945000000
H    -2.289000000    -5.339000000    -2.793000000
O    -6.355000000     1.301000000     3.700000000
H    -6.096000000     2.033000000     4.261000000
H    -5.777000000     1.366000000     2.940000000
O    -4.641000000     0.141000000    -3.830000000
H    -4.036000000     0.066000000    -3.092000000
H    -4.370000000    -0.550000000    -4.434000000
O     3.331000000    -3.980000000     0.243000000
H     2.558000000    -4.374000000     0.648000000
H     4.069000000    -4.347000000     0.730000000
O    -0.323000000     5.923000000     0.253000000
H    -1.258000000     5.961000000     0.050000000
H    -0.080000000     5.012000000     0.090000000
O     3.953000000     0.770000000     3.894000000
H     4.283000000     0.242000000     3.167000000
H     4.030000000     1.674000000     3.588000000
O    -2.440000000    -2.145000000     3.999000000
H    -3.169000000    -1.715000000     3.553000000
H    -1.966000000    -1.431000000     4.427000000
O    -4.474000000    -2.940000000    -2.539000000
H    -3.834000000    -2.272000000    -2.292000000
H    -3.946000000    -3.706000000    -2.763000000
O    -2.029000000     2.051000000     5.022000000
H    -2.376000000     2.257000000     5.890000000
H    -1.128000000     2.374000000     5.042000000
O    -7.235000000     0.593000000    -0.030000000
H    -7.861000000     1.034000000     0.544000000
H    -6.392000000     0.696000000     0.411000000
O    -1.126000000    -0.094000000    -5.394000000
H    -1.883000000    -0.676000000    -5.462000000
H    -1.256000000     0.374000000    -4.569000000
O    -0.033000000    -4.618000000    -1.005000000
H    -0.237000000    -3.798000000    -1.456000000
H     0.343000000    -4.344000000    -0.169000000
O    -2.803000000    -4.859000000     0.012000000
H    -2.408000000    -5.725000000     0.116000000
H    -2.131000000    -4.251000000     0.319000000
O     7.028000000     0.853000000     1.173000000
H     6.800000000     1.483000000     1.857000000
H     6.478000000     0.091000000     1.357000000
O     4.727000000    -0.804000000     1.819000000
H     4.834000000    -0.859000000     0.869000000
H     5.124000000    -1.609000000     2.152000000
O     1.935000000    -1.674000000     4.596000000
H     1.864000000    -2.359000000     3.932000000
H     2.298000000    -0.922000000     4.127000000
O     0.302000000     3.480000000    -0.768000000
H     0.439000000     3.782000000    -1.666000000
H    -0.338000000     2.773000000    -0.848000000
O     0.336000000    -5.612000000    -5.255000000
H     0.658000000    -4.757000000    -4.971000000
H    -0.480000000    -5.420000000    -5.716000000
O    -0.893000000    -2.869000000     1.174000000
H    -0.699000000    -1.967000000     0.919000000
H    -1.661000000    -2.798000000     1.741000000
O     0.447000000    -0.897000000     6.911000000
H     0.880000000    -1.341000000     6.182000000
H     0.834000000    -0.022000000     6.922000000
O     5.539000000    -1.283000000    -0.828000000
H     5.014000000    -1.888000000    -1.352000000
H     6.442000000    -1.452000000    -1.098000000
O    -4.731000000     1.279000000     1.174000000
H    -4.387000000     1.416000000     0.291000000
H    -4.327000000     1.970000000     1.698000000
O    -3.923000000     1.949000000    -1.360000000
H    -3.606000000     2.799000000    -1.055000000
H    -4.573000000     2.162000000    -2.030000000
