161
-3019.43298
C     0.161000000    -1.269000000    -0.767000000
H     0.296000000    -2.227000000    -1.263000000
C     1.161000000    -0.587000000    -0.084000000
H     2.179000000    -0.965000000    -0.064000000
C     0.890000000     0.608000000     0.596000000
C     1.975000000     1.411000000     1.348000000
H     2.993000000     1.022000000     1.275000000
H     2.067000000     2.460000000     1.056000000
H     1.704000000     1.504000000     2.401000000
C    -0.424000000     1.002000000     0.662000000
H    -0.758000000     1.891000000     1.190000000
C    -1.417000000     0.324000000    -0.066000000
H    -2.429000000     0.717000000    -0.010000000
C    -1.140000000    -0.807000000    -0.810000000
C    -2.178000000    -1.541000000    -1.562000000
O    -3.054000000    -0.850000000    -2.065000000
O    -2.031000000    -2.693000000    -1.838000000
O     1.061000000    -5.555000000    -4.822000000
H     0.324000000    -5.212000000    -4.317000000
H     1.761000000    -5.666000000    -4.179000000
O    -4.500000000     3.273000000    -4.309000000
H    -4.039000000     3.651000000    -3.561000000
H    -4.545000000     2.337000000    -4.115000000
O     3.854000000     4.194000000    -1.024000000
H     3.094000000     4.771000000    -0.955000000
H     4.327000000     4.322000000    -0.202000000
O     4.660000000     2.421000000    -2.968000000
H     3.921000000     2.729000000    -3.492000000
H     4.400000000     2.592000000    -2.063000000
O     0.292000000     6.065000000     1.074000000
H    -0.627000000     6.325000000     1.019000000
H     0.751000000     6.861000000     1.344000000
O    -0.466000000    -4.257000000    -0.058000000
H    -1.020000000    -3.613000000    -0.500000000
H    -0.589000000    -5.063000000    -0.560000000
O     5.652000000     4.360000000     1.350000000
H     6.281000000     4.865000000     0.834000000
H     5.715000000     4.730000000     2.231000000
O    -5.768000000     0.274000000    -2.255000000
H    -5.303000000    -0.244000000    -1.598000000
H    -5.123000000     0.914000000    -2.556000000
O    -5.207000000    -3.894000000    -3.515000000
H    -4.904000000    -4.165000000    -2.648000000
H    -5.433000000    -2.969000000    -3.411000000
O     3.913000000    -3.561000000     2.345000000
H     3.205000000    -3.781000000     1.739000000
H     4.236000000    -2.714000000     2.038000000
O     5.437000000    -1.902000000    -2.080000000
H     6.154000000    -1.268000000    -2.102000000
H     5.775000000    -2.664000000    -2.550000000
O    -4.265000000     3.534000000     2.531000000
H    -4.197000000     3.924000000     3.402000000
H    -4.668000000     2.679000000     2.681000000
O     4.596000000    -1.266000000     5.019000000
H     4.952000000    -0.521000000     4.535000000
H     5.356000000    -1.821000000     5.197000000
O     2.852000000    -2.199000000    -2.149000000
H     2.488000000    -1.367000000    -2.452000000
H     3.797000000    -2.050000000    -2.119000000
O    -3.966000000    -1.083000000    -4.489000000
H    -3.606000000    -0.976000000    -3.609000000
H    -4.814000000    -0.639000000    -4.457000000
O    -6.663000000    -4.204000000    -0.155000000
H    -5.708000000    -4.257000000    -0.202000000
H    -6.869000000    -3.319000000    -0.456000000
O     1.589000000     0.861000000    -2.816000000
H     1.070000000     1.425000000    -3.389000000
H     1.415000000     1.190000000    -1.934000000
O     4.769000000    -1.497000000     0.644000000
H     4.950000000    -1.701000000    -0.274000000
H     4.976000000    -0.566000000     0.728000000
O    -6.946000000     1.969000000     2.392000000
H    -6.553000000     1.141000000     2.116000000
H    -7.221000000     2.387000000     1.576000000
O    -0.112000000    -6.381000000    -1.861000000
H     0.764000000    -6.120000000    -1.577000000
H     0.028000000    -7.180000000    -2.368000000
O     1.589000000     5.496000000    -1.161000000
H     0.967000000     5.869000000    -0.536000000
H     1.364000000     4.566000000    -1.196000000
O    -3.990000000     0.385000000     4.293000000
H    -3.241000000     0.062000000     4.794000000
H    -4.348000000    -0.394000000     3.869000000
O    -5.667000000    -1.672000000     3.179000000
H    -6.321000000    -1.277000000     2.602000000
H    -4.997000000    -2.010000000     2.585000000
O    -5.026000000    -1.753000000    -0.386000000
H    -4.339000000    -1.597000000    -1.034000000
H    -4.653000000    -2.405000000     0.207000000
O    -3.923000000    -4.699000000    -1.235000000
H    -3.240000000    -4.097000000    -1.530000000
H    -3.445000000    -5.435000000    -0.853000000
O     1.224000000    -1.167000000     7.243000000
H     0.748000000    -0.439000000     7.644000000
H     1.303000000    -0.923000000     6.321000000
O     5.024000000     1.283000000     3.824000000
H     5.747000000     1.510000000     4.409000000
H     4.328000000     1.899000000     4.052000000
O     2.262000000     1.888000000     5.455000000
H     1.403000000     1.581000000     5.748000000
H     2.268000000     2.821000000     5.667000000
O     2.148000000    -4.131000000     0.070000000
H     1.198000000    -4.167000000     0.183000000
H     2.281000000    -3.499000000    -0.636000000
O     1.862000000    -0.298000000    -5.288000000
H     1.909000000     0.118000000    -4.427000000
H     1.211000000    -0.993000000    -5.183000000
O    -0.639000000    -4.473000000     3.396000000
H     0.185000000    -4.689000000     3.833000000
H    -0.512000000    -3.579000000     3.076000000
O     0.108000000    -1.972000000     2.637000000
H     0.518000000    -1.321000000     3.207000000
H     0.601000000    -1.917000000     1.818000000
O    -1.241000000    -4.217000000    -3.757000000
H    -2.041000000    -4.269000000    -4.280000000
H    -1.496000000    -3.720000000    -2.979000000
O    -2.444000000    -6.848000000    -0.342000000
H    -1.670000000    -6.838000000    -0.905000000
H    -2.097000000    -6.982000000     0.540000000
O     5.668000000     1.518000000     0.898000000
H     5.913000000     2.444000000     0.915000000
H     5.357000000     1.337000000     1.785000000
O    -0.034000000    -2.383000000    -5.299000000
H     0.029000000    -3.023000000    -6.007000000
H    -0.371000000    -2.881000000    -4.555000000
O     1.024000000     4.244000000     2.810000000
H     0.818000000     4.795000000     2.055000000
H     1.960000000     4.381000000     2.958000000
O    -2.940000000     3.317000000    -0.370000000
H    -2.710000000     4.212000000    -0.123000000
H    -3.684000000     3.097000000     0.191000000
O    -3.165000000     1.697000000    -2.522000000
H    -2.900000000     2.131000000    -1.711000000
H    -2.876000000     0.791000000    -2.414000000
O    -0.939000000     4.289000000     4.792000000
H    -0.259000000     4.186000000     4.126000000
H    -0.902000000     3.478000000     5.300000000
O    -3.782000000    -2.971000000     1.641000000
H    -2.911000000    -2.612000000     1.474000000
H    -3.642000000    -3.637000000     2.314000000
O     8.347000000    -0.329000000     0.494000000
H     8.902000000     0.174000000    -0.103000000
H     7.506000000     0.129000000     0.482000000
O    -1.365000000    -0.009000000    -5.946000000
H    -0.904000000    -0.736000000    -5.526000000
H    -2.268000000    -0.089000000    -5.639000000
O    -0.194000000     3.103000000    -1.971000000
H    -1.092000000     2.946000000    -1.679000000
H    -0.153000000     2.707000000    -2.842000000
O     3.580000000     5.711000000     3.873000000
H     4.508000000     5.600000000     3.668000000
H     3.255000000     6.306000000     3.197000000
O    -3.342000000    -6.739000000    -3.695000000
H    -3.539000000    -6.220000000    -4.474000000
H    -2.453000000    -6.479000000    -3.452000000
O     1.953000000    -0.768000000     4.551000000
H     2.073000000     0.175000000     4.663000000
H     2.805000000    -1.146000000     4.768000000
O    -3.233000000    -3.146000000    -6.404000000
H    -3.299000000    -2.598000000    -5.622000000
H    -3.453000000    -2.559000000    -7.127000000
