161
-3045.93176
C     0.510000000    -1.040000000    -0.874000000
H     0.892000000    -1.965000000    -1.300000000
C     1.139000000    -0.550000000     0.277000000
H     2.086000000    -0.955000000     0.625000000
C     0.563000000     0.467000000     1.027000000
C     1.228000000     0.930000000     2.230000000
H     2.221000000     0.480000000     2.284000000
H     1.234000000     2.021000000     2.217000000
H     0.707000000     0.663000000     3.152000000
C    -0.627000000     1.048000000     0.548000000
H    -0.995000000     1.839000000     1.196000000
C    -1.277000000     0.514000000    -0.621000000
H    -2.189000000     1.010000000    -0.942000000
C    -0.688000000    -0.525000000    -1.328000000
C    -1.386000000    -1.143000000    -2.518000000
O    -2.263000000    -0.502000000    -3.064000000
O    -1.155000000    -2.288000000    -2.909000000
O    -3.495000000     2.551000000    -6.074000000
H    -3.273000000     3.279000000    -5.493000000
H    -3.832000000     1.872000000    -5.490000000
O     3.494000000     2.788000000    -1.872000000
H     2.645000000     2.591000000    -2.269000000
H     3.512000000     2.265000000    -1.072000000
O     4.348000000     1.008000000    -4.085000000
H     3.932000000     0.195000000    -3.800000000
H     3.759000000     1.698000000    -3.783000000
O     1.042000000     5.444000000     0.828000000
H     0.332000000     4.856000000     0.571000000
H     0.611000000     6.284000000     0.989000000
O    -0.206000000    -4.893000000    -2.193000000
H    -0.535000000    -3.999000000    -2.290000000
H    -0.292000000    -5.276000000    -3.066000000
O     4.749000000     2.973000000     1.127000000
H     4.432000000     3.810000000     0.789000000
H     4.543000000     2.998000000     2.061000000
O    -6.950000000     0.038000000    -3.022000000
H    -7.031000000     0.941000000    -2.717000000
H    -6.056000000    -0.022000000    -3.360000000
O    -5.318000000    -4.468000000    -4.316000000
H    -4.762000000    -3.690000000    -4.356000000
H    -4.704000000    -5.201000000    -4.312000000
O     3.837000000     5.672000000     0.763000000
H     2.887000000     5.590000000     0.679000000
H     4.090000000     6.267000000     0.057000000
O    -3.347000000     2.973000000     3.563000000
H    -2.971000000     2.121000000     3.784000000
H    -3.530000000     2.919000000     2.625000000
O     4.211000000    -3.090000000     4.533000000
H     4.091000000    -3.566000000     3.711000000
H     5.161000000    -3.027000000     4.637000000
O     0.723000000     3.366000000     5.830000000
H     0.458000000     4.038000000     6.459000000
H     0.828000000     3.839000000     5.005000000
O    -3.407000000    -2.307000000    -4.698000000
H    -2.801000000    -1.997000000    -4.025000000
H    -3.811000000    -1.511000000    -5.043000000
O     4.516000000    -4.267000000     1.965000000
H     3.748000000    -4.316000000     1.396000000
H     5.110000000    -3.667000000     1.515000000
O     2.722000000    -1.077000000    -3.685000000
H     3.397000000    -1.754000000    -3.629000000
H     1.962000000    -1.459000000    -3.248000000
O     5.897000000    -2.584000000     0.043000000
H     6.263000000    -2.746000000    -0.826000000
H     5.613000000    -1.670000000     0.017000000
O     0.713000000    -6.446000000     1.333000000
H     0.709000000    -5.508000000     1.523000000
H     1.574000000    -6.608000000     0.948000000
O     0.563000000     3.204000000    -1.982000000
H     0.281000000     3.029000000    -1.084000000
H     0.116000000     2.539000000    -2.506000000
O    -4.042000000    -2.446000000     1.941000000
H    -3.430000000    -2.401000000     2.675000000
H    -3.520000000    -2.787000000     1.214000000
O    -6.699000000     2.510000000    -1.639000000
H    -5.799000000     2.744000000    -1.862000000
H    -7.101000000     3.335000000    -1.367000000
O    -1.636000000     4.424000000     0.517000000
H    -2.350000000     3.834000000     0.759000000
H    -2.072000000     5.244000000     0.286000000
O    -4.981000000    -1.192000000    -0.943000000
H    -5.763000000    -1.230000000    -1.493000000
H    -4.767000000    -0.260000000    -0.894000000
O    -3.882000000    -3.313000000    -2.160000000
H    -3.412000000    -3.099000000    -2.965000000
H    -4.194000000    -2.469000000    -1.834000000
O    -2.680000000     0.569000000     4.545000000
H    -1.988000000     0.077000000     4.103000000
H    -2.436000000     0.546000000     5.470000000
O     1.644000000    -4.140000000     3.999000000
H     1.041000000    -3.608000000     4.519000000
H     2.513000000    -3.899000000     4.320000000
O    -4.249000000     3.064000000     0.833000000
H    -4.838000000     3.789000000     0.624000000
H    -4.738000000     2.279000000     0.585000000
O     4.866000000     2.435000000     3.900000000
H     4.743000000     3.255000000     4.379000000
H     4.229000000     1.834000000     4.285000000
O     0.309000000    -3.336000000     1.816000000
H     0.718000000    -3.620000000     2.633000000
H     1.021000000    -3.346000000     1.176000000
O     2.889000000     1.825000000     5.557000000
H     2.056000000     2.291000000     5.629000000
H     3.408000000     2.148000000     6.293000000
O     1.714000000    -4.238000000    -0.418000000
H     0.967000000    -4.487000000    -0.963000000
H     2.480000000    -4.455000000    -0.950000000
O    -2.474000000    -3.823000000     0.127000000
H    -1.533000000    -3.716000000    -0.012000000
H    -2.860000000    -3.712000000    -0.742000000
O    -1.596000000    -1.702000000     3.092000000
H    -1.171000000    -2.164000000     3.814000000
H    -1.038000000    -1.879000000     2.334000000
O    -0.713000000    -4.276000000    -4.886000000
H    -1.301000000    -4.434000000    -5.624000000
H    -0.935000000    -3.394000000    -4.587000000
O    -3.677000000    -0.401000000    -6.771000000
H    -3.255000000    -0.460000000    -7.628000000
H    -3.749000000     0.539000000    -6.603000000
O     5.349000000     0.373000000     0.173000000
H     5.595000000     1.298000000     0.180000000
H     5.642000000     0.040000000     1.022000000
O     6.369000000    -0.399000000     2.814000000
H     6.247000000    -1.136000000     3.411000000
H     6.600000000     0.335000000     3.383000000
O     1.458000000    -1.732000000    -6.224000000
H     1.795000000    -1.561000000    -5.345000000
H     1.872000000    -2.555000000    -6.484000000
O     0.932000000     4.757000000     3.683000000
H     0.615000000     4.685000000     2.783000000
H     1.721000000     5.293000000     3.617000000
O    -3.872000000     2.610000000    -2.409000000
H    -4.043000000     3.479000000    -2.772000000
H    -3.119000000     2.735000000    -1.832000000
O    -4.413000000     0.605000000    -4.131000000
H    -4.623000000     1.369000000    -3.595000000
H    -3.706000000     0.166000000    -3.658000000
O    -2.663000000     4.888000000     5.283000000
H    -2.288000000     4.304000000     5.942000000
H    -2.754000000     4.341000000     4.503000000
O    -3.926000000     0.308000000     1.383000000
H    -4.060000000    -0.636000000     1.296000000
H    -2.984000000     0.405000000     1.522000000
O    -1.226000000     1.678000000    -7.053000000
H    -1.988000000     2.158000000    -6.728000000
H    -1.516000000     1.305000000    -7.885000000
O    -1.075000000     1.701000000    -4.033000000
H    -1.532000000     0.884000000    -3.831000000
H    -0.724000000     1.567000000    -4.914000000
O     3.796000000     5.429000000     3.534000000
H     4.661000000     5.747000000     3.793000000
H     3.823000000     5.414000000     2.577000000
O     2.267000000    -1.271000000     5.481000000
H     1.757000000    -0.620000000     5.000000000
H     2.932000000    -1.562000000     4.857000000
O     4.095000000    -4.952000000    -1.846000000
H     4.647000000    -5.360000000    -2.513000000
H     4.191000000    -4.012000000    -2.000000000
O    -2.906000000    -4.500000000    -6.852000000
H    -3.232000000    -3.703000000    -6.433000000
H    -2.304000000    -4.187000000    -7.527000000
