161
-3044.01870
C     0.258000000    -1.424000000     0.148000000
H     0.579000000    -2.463000000     0.128000000
C     1.094000000    -0.419000000     0.565000000
H     2.077000000    -0.650000000     0.968000000
C     0.668000000     0.915000000     0.483000000
C     1.619000000     2.003000000     0.882000000
H     2.666000000     1.748000000     0.703000000
H     1.351000000     2.928000000     0.368000000
H     1.515000000     2.205000000     1.950000000
C    -0.542000000     1.218000000    -0.162000000
H    -0.793000000     2.241000000    -0.432000000
C    -1.353000000     0.137000000    -0.689000000
H    -2.322000000     0.393000000    -1.108000000
C    -0.936000000    -1.147000000    -0.467000000
C    -1.761000000    -2.243000000    -0.957000000
O    -2.786000000    -2.041000000    -1.596000000
O    -1.340000000    -3.401000000    -0.778000000
O    -5.250000000     3.437000000    -4.041000000
H    -5.946000000     2.779000000    -4.024000000
H    -4.748000000     3.275000000    -3.243000000
O    -2.829000000     2.159000000    -2.459000000
H    -2.578000000     3.082000000    -2.482000000
H    -2.447000000     1.787000000    -3.254000000
O     1.127000000    -2.027000000    -3.979000000
H     0.697000000    -2.329000000    -4.779000000
H     1.093000000    -1.072000000    -4.034000000
O     5.747000000     4.692000000     0.643000000
H     5.604000000     5.176000000    -0.171000000
H     4.897000000     4.300000000     0.840000000
O     1.218000000    -6.006000000    -0.282000000
H     1.948000000    -5.874000000     0.323000000
H     1.064000000    -5.141000000    -0.663000000
O    -4.821000000     1.267000000     0.686000000
H    -4.739000000     0.314000000     0.631000000
H    -5.123000000     1.531000000    -0.183000000
O    -6.342000000     1.020000000    -1.673000000
H    -6.848000000     1.263000000    -2.448000000
H    -6.746000000     0.207000000    -1.369000000
O     2.656000000    -3.673000000     1.578000000
H     2.867000000    -3.680000000     0.645000000
H     3.499000000    -3.796000000     2.016000000
O    -3.502000000    -4.372000000     0.452000000
H    -2.865000000    -4.816000000     1.011000000
H    -2.978000000    -3.982000000    -0.248000000
O    -2.092000000     1.312000000    -5.057000000
H    -2.929000000     1.272000000    -5.520000000
H    -1.670000000     2.103000000    -5.392000000
O     2.032000000     3.141000000     4.577000000
H     2.454000000     3.017000000     5.427000000
H     1.704000000     2.273000000     4.343000000
O    -2.965000000     3.004000000     0.427000000
H    -2.527000000     2.582000000    -0.311000000
H    -3.795000000     2.536000000     0.514000000
O     4.660000000     1.708000000     2.344000000
H     4.531000000     2.654000000     2.282000000
H     4.954000000     1.448000000     1.471000000
O    -4.330000000    -1.083000000    -3.435000000
H    -3.646000000    -1.549000000    -2.954000000
H    -4.340000000    -0.207000000    -3.050000000
O     4.068000000    -1.798000000     4.001000000
H     3.725000000    -2.434000000     4.628000000
H     4.983000000    -2.052000000     3.878000000
O    -5.692000000    -4.739000000    -1.993000000
H    -5.870000000    -5.202000000    -2.811000000
H    -4.744000000    -4.603000000    -1.996000000
O     2.571000000     4.760000000    -1.532000000
H     2.084000000     4.257000000    -2.184000000
H     1.907000000     5.049000000    -0.906000000
O     5.955000000     1.436000000    -0.144000000
H     5.310000000     1.317000000    -0.841000000
H     6.542000000     2.115000000    -0.474000000
O     4.787000000     6.326000000    -1.384000000
H     4.145000000     5.622000000    -1.477000000
H     5.301000000     6.289000000    -2.191000000
O    -0.115000000    -6.832000000     3.439000000
H     0.795000000    -6.986000000     3.185000000
H    -0.471000000    -6.289000000     2.736000000
O    -0.797000000    -6.705000000    -2.358000000
H    -0.444000000    -6.405000000    -1.520000000
H    -0.471000000    -7.601000000    -2.447000000
O     0.751000000     5.592000000     0.841000000
H     0.280000000     6.373000000     0.551000000
H     1.461000000     5.929000000     1.388000000
O    -4.611000000    -1.458000000     0.251000000
H    -5.406000000    -1.978000000     0.126000000
H    -4.073000000    -1.657000000    -0.515000000
O    -3.017000000    -4.469000000    -3.266000000
H    -2.234000000    -4.643000000    -3.788000000
H    -2.860000000    -3.608000000    -2.878000000
O     2.207000000    -5.109000000    -4.189000000
H     1.686000000    -4.908000000    -3.411000000
H     2.671000000    -4.295000000    -4.382000000
O     4.066000000     4.392000000     2.932000000
H     3.496000000     4.096000000     3.642000000
H     3.714000000     5.247000000     2.683000000
O    -2.937000000     2.405000000     4.347000000
H    -2.317000000     1.743000000     4.652000000
H    -2.618000000     2.650000000     3.478000000
O     2.700000000     0.358000000     3.828000000
H     2.922000000    -0.572000000     3.782000000
H     3.390000000     0.794000000     3.328000000
O     0.213000000     5.578000000     4.536000000
H    -0.178000000     4.915000000     3.966000000
H     1.146000000     5.364000000     4.548000000
O     0.974000000    -3.954000000    -2.084000000
H     0.168000000    -3.860000000    -1.575000000
H     1.043000000    -3.137000000    -2.578000000
O    -6.874000000    -2.119000000    -3.417000000
H    -5.989000000    -1.766000000    -3.511000000
H    -6.938000000    -2.788000000    -4.098000000
O     0.462000000    -3.224000000     3.133000000
H     1.301000000    -3.147000000     2.679000000
H     0.349000000    -2.381000000     3.572000000
O    -4.285000000    -1.906000000    -5.887000000
H    -4.314000000    -1.760000000    -4.941000000
H    -4.776000000    -2.717000000    -6.019000000
O     7.790000000     2.911000000     1.661000000
H     7.041000000     3.191000000     1.136000000
H     7.733000000     3.437000000     2.459000000
O     5.901000000     0.818000000     4.693000000
H     6.283000000     1.576000000     5.136000000
H     5.517000000     1.177000000     3.893000000
O    -0.992000000    -5.126000000    -4.807000000
H    -0.969000000    -5.881000000    -4.219000000
H    -0.159000000    -5.164000000    -5.278000000
O    -3.940000000     5.224000000    -1.191000000
H    -3.125000000     5.152000000    -1.687000000
H    -3.750000000     4.798000000    -0.355000000
O    -3.585000000    -3.860000000     3.818000000
H    -3.394000000    -3.096000000     3.274000000
H    -2.889000000    -3.866000000     4.476000000
O    -0.885000000     3.974000000     2.459000000
H    -0.083000000     4.092000000     1.950000000
H    -1.531000000     3.670000000     1.821000000
O    -2.750000000    -1.348000000     2.314000000
H    -1.909000000    -1.500000000     1.884000000
H    -3.402000000    -1.623000000     1.670000000
O    -1.032000000    -5.044000000     1.598000000
H    -0.449000000    -4.472000000     2.097000000
H    -0.881000000    -4.802000000     0.684000000
O     4.347000000     1.268000000    -2.598000000
H     4.317000000     2.067000000    -3.124000000
H     3.479000000     1.212000000    -2.199000000
O     1.659000000     3.047000000    -3.523000000
H     2.562000000     3.035000000    -3.841000000
H     1.368000000     2.138000000    -3.593000000
O    -6.249000000    -4.682000000     1.429000000
H    -5.394000000    -4.846000000     1.031000000
H    -6.080000000    -4.693000000     2.371000000
O    -1.361000000     4.604000000    -3.013000000
H    -0.536000000     4.147000000    -3.178000000
H    -1.359000000     5.332000000    -3.635000000
O     0.292000000     0.683000000    -3.625000000
H     0.137000000     0.192000000    -2.818000000
H    -0.544000000     0.648000000    -4.090000000
O     0.157000000    -0.536000000     3.552000000
H    -0.233000000    -0.170000000     2.758000000
H     0.999000000    -0.088000000     3.634000000
O     3.572000000    -4.353000000    -0.871000000
H     4.197000000    -3.803000000    -1.343000000
H     2.965000000    -4.658000000    -1.545000000
