161
-3024.94088
C    -0.549000000    -1.072000000     0.877000000
H    -1.037000000    -1.761000000     1.563000000
C     0.244000000    -0.044000000     1.292000000
H     0.569000000    -0.022000000     2.329000000
C     0.782000000     0.870000000     0.357000000
C     1.583000000     2.010000000     0.869000000
H     1.104000000     2.771000000     1.488000000
H     2.544000000     1.709000000     1.292000000
H     1.986000000     2.457000000    -0.042000000
C     0.291000000     0.863000000    -0.920000000
H     0.558000000     1.654000000    -1.616000000
C    -0.452000000    -0.231000000    -1.375000000
H    -0.748000000    -0.163000000    -2.419000000
C    -0.918000000    -1.174000000    -0.453000000
C    -1.761000000    -2.301000000    -0.957000000
O    -2.182000000    -2.345000000    -2.110000000
O    -2.019000000    -3.217000000    -0.182000000
O    -5.264000000    -3.147000000    -4.661000000
H    -5.831000000    -3.638000000    -5.256000000
H    -4.981000000    -2.389000000    -5.172000000
O     2.534000000     2.919000000    -6.294000000
H     3.468000000     3.102000000    -6.396000000
H     2.497000000     2.216000000    -5.645000000
O     6.475000000     2.112000000     1.045000000
H     6.142000000     1.708000000     1.846000000
H     7.425000000     2.004000000     1.099000000
O     1.023000000     6.011000000     0.635000000
H     1.824000000     6.083000000     1.154000000
H     1.068000000     6.744000000     0.021000000
O    -4.514000000    -0.024000000     0.757000000
H    -4.149000000    -0.129000000    -0.122000000
H    -5.412000000     0.274000000     0.609000000
O    -2.290000000     3.561000000    -5.937000000
H    -1.560000000     3.223000000    -5.417000000
H    -2.064000000     4.477000000    -6.099000000
O    -5.586000000    -5.253000000     1.422000000
H    -4.868000000    -4.932000000     0.876000000
H    -5.166000000    -5.843000000     2.048000000
O    -6.194000000    -3.711000000    -2.165000000
H    -6.017000000    -3.397000000    -3.052000000
H    -5.462000000    -4.297000000    -1.968000000
O     4.644000000    -0.611000000    -0.169000000
H     5.026000000    -0.635000000     0.708000000
H     5.391000000    -0.472000000    -0.752000000
O    -2.189000000     2.508000000    -0.018000000
H    -2.909000000     2.581000000     0.609000000
H    -1.456000000     2.172000000     0.498000000
O    -1.026000000    -5.554000000     1.276000000
H    -1.341000000    -4.771000000     0.825000000
H    -0.166000000    -5.306000000     1.615000000
O     5.573000000     0.837000000     3.399000000
H     5.920000000    -0.052000000     3.475000000
H     6.222000000     1.386000000     3.840000000
O    -1.843000000    -8.151000000     1.535000000
H    -1.029000000    -8.350000000     1.996000000
H    -1.841000000    -7.197000000     1.447000000
O     2.454000000     0.428000000     3.922000000
H     3.012000000    -0.097000000     3.348000000
H     3.065000000     0.885000000     4.500000000
O     0.099000000    -1.533000000     4.676000000
H     0.968000000    -1.555000000     4.275000000
H    -0.127000000    -0.603000000     4.708000000
O    -3.309000000     2.544000000    -2.709000000
H    -2.837000000     2.300000000    -1.913000000
H    -3.809000000     3.322000000    -2.462000000
O    -0.121000000     1.742000000     7.356000000
H    -0.148000000     1.538000000     6.421000000
H     0.128000000     0.917000000     7.774000000
O    -0.672000000     4.602000000    -1.136000000
H    -0.306000000     5.035000000    -0.365000000
H    -1.231000000     3.911000000    -0.780000000
O    -3.734000000    -5.006000000    -0.961000000
H    -3.613000000    -5.192000000    -1.892000000
H    -3.214000000    -4.218000000    -0.804000000
O    -3.834000000     1.685000000     2.729000000
H    -3.876000000     1.010000000     2.052000000
H    -4.559000000     1.479000000     3.319000000
O     0.974000000    -0.835000000    -7.424000000
H     0.479000000    -0.721000000    -6.613000000
H     0.616000000    -1.633000000    -7.813000000
O    -3.571000000    -3.024000000     2.117000000
H    -4.018000000    -2.178000000     2.088000000
H    -3.154000000    -3.104000000     1.258000000
O     3.074000000    -3.573000000     1.043000000
H     2.578000000    -3.201000000     0.314000000
H     2.409000000    -3.795000000     1.696000000
O     3.437000000     5.013000000    -2.810000000
H     4.269000000     5.156000000    -3.262000000
H     3.676000000     4.537000000    -2.014000000
O     3.272000000    -2.833000000     4.678000000
H     3.677000000    -3.659000000     4.416000000
H     3.930000000    -2.168000000     4.474000000
O     0.840000000     4.541000000    -3.442000000
H     0.477000000     4.729000000    -2.577000000
H     1.788000000     4.594000000    -3.321000000
O    -4.315000000    -7.735000000    -1.096000000
H    -4.186000000    -6.790000000    -1.181000000
H    -3.741000000    -7.992000000    -0.375000000
O     4.809000000     1.342000000    -3.143000000
H     5.069000000     0.511000000    -2.746000000
H     4.678000000     1.932000000    -2.401000000
O     1.058000000    -4.270000000     2.912000000
H     1.646000000    -4.238000000     3.666000000
H     0.183000000    -4.346000000     3.293000000
O    -0.266000000    -0.036000000    -5.192000000
H    -1.057000000    -0.491000000    -4.903000000
H    -0.330000000     0.832000000    -4.793000000
O    -0.278000000    -6.504000000    -1.782000000
H    -0.674000000    -5.934000000    -1.121000000
H    -0.348000000    -6.008000000    -2.598000000
O     2.277000000    -1.653000000    -1.516000000
H     1.496000000    -1.242000000    -1.147000000
H     3.008000000    -1.185000000    -1.113000000
O    -2.064000000     5.486000000     2.100000000
H    -1.201000000     5.604000000     1.703000000
H    -2.339000000     6.370000000     2.343000000
O     4.770000000     2.943000000    -0.953000000
H     4.252000000     2.366000000    -0.392000000
H     5.583000000     3.084000000    -0.467000000
O    -1.666000000     3.160000000     3.529000000
H    -1.806000000     4.041000000     3.183000000
H    -2.472000000     2.688000000     3.317000000
O     1.838000000    -4.360000000    -5.277000000
H     1.111000000    -4.176000000    -4.682000000
H     2.543000000    -3.785000000    -4.980000000
O    -2.386000000    -1.394000000    -4.590000000
H    -3.126000000    -1.550000000    -5.176000000
H    -2.619000000    -1.852000000    -3.782000000
O    -1.466000000    -3.839000000     4.125000000
H    -1.169000000    -2.956000000     4.346000000
H    -2.105000000    -3.708000000     3.424000000
O    -4.367000000    -0.732000000    -1.943000000
H    -4.827000000    -1.556000000    -2.098000000
H    -3.447000000    -0.982000000    -1.862000000
O     3.202000000    -2.451000000    -3.930000000
H     4.053000000    -2.650000000    -3.539000000
H     2.631000000    -2.276000000    -3.183000000
O     3.451000000     6.228000000     1.838000000
H     3.633000000     6.939000000     1.224000000
H     4.171000000     6.265000000     2.468000000
O     2.710000000     4.455000000     4.451000000
H     2.616000000     4.569000000     3.505000000
H     1.918000000     4.845000000     4.819000000
O     0.127000000     1.176000000     4.783000000
H    -0.370000000     1.691000000     4.147000000
H     1.006000000     1.117000000     4.408000000
O     3.722000000     2.223000000     5.266000000
H     3.408000000     3.031000000     4.861000000
H     4.496000000     1.984000000     4.755000000
O     0.147000000     4.406000000     5.028000000
H     0.381000000     3.863000000     5.780000000
H    -0.465000000     3.868000000     4.525000000
O    -0.799000000    -4.181000000    -3.702000000
H    -1.695000000    -4.328000000    -4.004000000
H    -0.890000000    -3.577000000    -2.965000000
O    -0.680000000     2.597000000    -4.085000000
H    -1.517000000     2.619000000    -3.622000000
H    -0.155000000     3.277000000    -3.663000000
O    -3.674000000    -5.094000000    -3.825000000
H    -4.264000000    -4.477000000    -4.259000000
H    -3.371000000    -5.670000000    -4.527000000
