161
-3049.42615
C    -1.458000000    -0.339000000     0.275000000
H    -2.426000000    -0.684000000     0.629000000
C    -0.710000000     0.539000000     1.014000000
H    -1.148000000     0.980000000     1.906000000
C     0.635000000     0.811000000     0.673000000
C     1.633000000     1.600000000     1.466000000
H     1.402000000     1.550000000     2.533000000
H     2.719000000     1.564000000     1.355000000
H     1.394000000     2.635000000     1.213000000
C     1.117000000     0.218000000    -0.437000000
H     2.165000000     0.381000000    -0.676000000
C     0.398000000    -0.658000000    -1.236000000
H     0.839000000    -1.071000000    -2.140000000
C    -0.886000000    -0.946000000    -0.863000000
C    -1.647000000    -1.982000000    -1.635000000
O    -1.194000000    -2.403000000    -2.668000000
O    -2.826000000    -2.195000000    -1.403000000
O     5.732000000    -0.747000000     0.245000000
H     4.981000000    -1.320000000     0.399000000
H     6.066000000    -1.014000000    -0.611000000
O     4.078000000     5.995000000     4.706000000
H     3.678000000     5.621000000     5.491000000
H     3.613000000     5.581000000     3.979000000
O    -3.624000000     4.330000000     5.319000000
H    -2.797000000     4.066000000     4.917000000
H    -3.637000000     5.284000000     5.237000000
O    -7.119000000    -0.479000000     2.951000000
H    -7.162000000    -1.301000000     3.440000000
H    -6.263000000    -0.500000000     2.522000000
O    -0.782000000     0.770000000     4.749000000
H    -0.676000000     0.882000000     5.694000000
H    -1.693000000     0.497000000     4.641000000
O    -2.786000000    -0.071000000    -5.523000000
H    -2.745000000     0.779000000    -5.084000000
H    -1.978000000    -0.514000000    -5.263000000
O    -2.092000000    -5.131000000    -1.737000000
H    -2.158000000    -4.184000000    -1.857000000
H    -2.471000000    -5.501000000    -2.534000000
O     4.508000000     1.366000000    -1.095000000
H     4.727000000     0.487000000    -0.785000000
H     4.990000000     1.952000000    -0.511000000
O    -0.503000000     2.864000000    -2.930000000
H    -0.922000000     2.147000000    -2.454000000
H    -0.855000000     2.800000000    -3.817000000
O    -5.746000000     2.853000000     2.017000000
H    -6.346000000     3.590000000     1.901000000
H    -5.858000000     2.327000000     1.226000000
O     2.534000000    -0.878000000    -4.805000000
H     2.654000000    -1.814000000    -4.644000000
H     3.010000000    -0.713000000    -5.619000000
O     0.088000000    -5.966000000    -0.533000000
H     0.253000000    -6.787000000    -0.998000000
H    -0.703000000    -5.614000000    -0.942000000
O    -1.389000000     3.432000000     4.010000000
H    -0.777000000     3.923000000     3.462000000
H    -1.165000000     2.514000000     3.855000000
O     1.522000000     5.177000000     0.070000000
H     1.970000000     6.022000000     0.113000000
H     0.637000000     5.390000000    -0.227000000
O     2.583000000     5.045000000     2.758000000
H     1.740000000     5.473000000     2.607000000
H     2.802000000     4.644000000     1.917000000
O    -0.277000000    -1.225000000    -4.960000000
H    -0.640000000    -1.518000000    -4.124000000
H     0.666000000    -1.359000000    -4.871000000
O     4.131000000     4.396000000     0.434000000
H     3.192000000     4.362000000     0.255000000
H     4.490000000     4.937000000    -0.269000000
O    -3.776000000     4.353000000     1.199000000
H    -3.868000000     5.205000000     1.625000000
H    -4.415000000     3.794000000     1.641000000
O    -5.053000000    -0.939000000    -1.436000000
H    -4.207000000    -1.310000000    -1.184000000
H    -5.083000000    -1.036000000    -2.388000000
O     1.018000000    -3.334000000     4.925000000
H     0.849000000    -2.596000000     4.338000000
H     1.969000000    -3.442000000     4.906000000
O     5.809000000    -0.531000000    -3.823000000
H     5.949000000    -1.182000000    -3.135000000
H     6.014000000    -0.993000000    -4.635000000
O    -0.369000000     4.805000000     6.306000000
H    -0.508000000     4.496000000     7.201000000
H    -0.974000000     4.286000000     5.776000000
O    -3.140000000    -6.062000000     0.691000000
H    -4.063000000    -6.315000000     0.696000000
H    -3.010000000    -5.645000000    -0.160000000
O     2.260000000    -4.632000000    -0.846000000
H     2.970000000    -5.268000000    -0.759000000
H     1.470000000    -5.121000000    -0.614000000
O     2.404000000     4.211000000     6.573000000
H     1.551000000     4.263000000     6.142000000
H     2.210000000     4.317000000     7.504000000
O     1.508000000    -3.598000000    -3.842000000
H     0.893000000    -3.317000000    -3.164000000
H     1.055000000    -4.309000000    -4.296000000
O    -0.339000000    -5.666000000    -4.214000000
H    -0.909000000    -5.067000000    -4.697000000
H    -0.810000000    -5.840000000    -3.400000000
O    -4.917000000    -1.319000000    -4.431000000
H    -4.261000000    -0.940000000    -5.016000000
H    -5.743000000    -1.224000000    -4.905000000
O     6.417000000     3.875000000     2.666000000
H     6.088000000     3.539000000     1.833000000
H     5.676000000     4.351000000     3.042000000
O     4.147000000    -3.616000000    -2.767000000
H     3.807000000    -3.769000000    -1.885000000
H     3.378000000    -3.370000000    -3.281000000
O     5.791000000    -2.743000000     2.914000000
H     5.769000000    -3.001000000     1.993000000
H     5.047000000    -2.149000000     3.015000000
O     4.257000000    -0.913000000     5.829000000
H     4.440000000    -0.804000000     4.896000000
H     3.536000000    -0.309000000     6.005000000
O     1.850000000     4.337000000    -3.428000000
H     1.029000000     4.196000000    -2.956000000
H     2.301000000     3.494000000    -3.382000000
O     3.728000000     2.336000000    -3.460000000
H     4.029000000     1.636000000    -4.038000000
H     4.068000000     2.097000000    -2.598000000
O    -0.117000000     5.760000000     2.855000000
H    -0.936000000     6.249000000     2.940000000
H    -0.164000000     5.363000000     1.986000000
O     6.673000000     2.270000000     0.287000000
H     6.866000000     2.182000000    -0.646000000
H     6.726000000     1.377000000     0.628000000
O     3.929000000    -0.393000000     3.144000000
H     3.804000000    -0.249000000     2.206000000
H     3.170000000     0.023000000     3.553000000
O     3.090000000    -1.940000000    -0.209000000
H     2.817000000    -2.812000000    -0.497000000
H     2.302000000    -1.403000000    -0.294000000
O    -4.680000000    -1.463000000     2.723000000
H    -4.181000000    -1.854000000     2.006000000
H    -4.820000000    -2.182000000     3.338000000
O    -1.071000000     4.271000000     0.528000000
H    -0.828000000     3.632000000    -0.142000000
H    -1.973000000     4.046000000     0.757000000
O    -3.338000000    -3.286000000     1.111000000
H    -3.205000000    -2.857000000     0.266000000
H    -2.830000000    -4.095000000     1.052000000
O    -6.174000000     1.324000000    -0.025000000
H    -6.944000000     0.802000000     0.200000000
H    -5.559000000     0.695000000    -0.401000000
O     0.285000000    -1.495000000    -7.669000000
H    -0.042000000    -1.425000000    -6.772000000
H    -0.423000000    -1.924000000    -8.148000000
O    -2.376000000    -3.582000000    -4.691000000
H    -3.195000000    -3.087000000    -4.673000000
H    -1.786000000    -3.091000000    -4.119000000
O     2.667000000     1.472000000     5.144000000
H     1.790000000     1.629000000     5.493000000
H     3.214000000     2.136000000     5.563000000
O    -3.525000000     0.260000000     4.583000000
H    -4.308000000     0.790000000     4.731000000
H    -3.773000000    -0.343000000     3.882000000
O    -7.405000000    -2.375000000    -1.154000000
H    -7.286000000    -3.237000000    -0.755000000
H    -6.517000000    -2.079000000    -1.355000000
O     0.648000000    -1.811000000     2.829000000
H     0.745000000    -2.045000000     1.906000000
H     0.374000000    -0.894000000     2.817000000
