161
-3031.51844
C    -0.944000000     0.035000000     1.180000000
H    -1.521000000    -0.189000000     2.074000000
C     0.450000000    -0.221000000     1.195000000
H     0.847000000    -0.424000000     2.187000000
C     1.279000000    -0.052000000     0.084000000
C     2.715000000    -0.528000000     0.115000000
H     2.983000000    -0.681000000    -0.932000000
H     3.471000000     0.158000000     0.503000000
H     2.795000000    -1.486000000     0.634000000
C     0.666000000     0.357000000    -1.096000000
H     1.212000000     0.345000000    -2.035000000
C    -0.748000000     0.514000000    -1.165000000
H    -1.171000000     0.716000000    -2.145000000
C    -1.545000000     0.344000000    -0.006000000
C    -3.099000000     0.393000000    -0.152000000
O    -3.605000000     0.836000000    -1.166000000
O    -3.779000000    -0.113000000     0.720000000
O     1.446000000     3.711000000    -2.435000000
H     0.828000000     3.895000000    -3.141000000
H     2.308000000     3.820000000    -2.837000000
O     3.599000000     3.250000000    -4.673000000
H     4.166000000     2.602000000    -4.256000000
H     2.855000000     2.743000000    -4.999000000
O    -4.081000000     3.549000000    -4.476000000
H    -4.549000000     3.014000000    -3.835000000
H    -3.270000000     3.069000000    -4.643000000
O    -1.584000000     3.153000000    -5.812000000
H    -0.936000000     2.861000000    -6.453000000
H    -1.312000000     4.043000000    -5.585000000
O    -3.721000000     1.787000000     3.314000000
H    -3.421000000     1.184000000     3.994000000
H    -3.784000000     1.246000000     2.526000000
O     1.862000000    -4.989000000    -0.639000000
H     1.065000000    -4.551000000    -0.938000000
H     1.961000000    -4.713000000     0.272000000
O    -3.370000000    -3.300000000    -3.320000000
H    -3.886000000    -2.496000000    -3.389000000
H    -3.485000000    -3.581000000    -2.413000000
O     4.541000000    -0.438000000     3.550000000
H     3.717000000     0.032000000     3.679000000
H     4.429000000    -1.256000000     4.033000000
O    -2.794000000     4.193000000     4.209000000
H    -2.990000000     3.282000000     3.987000000
H    -3.652000000     4.613000000     4.272000000
O    -0.366000000     0.760000000     5.377000000
H     0.555000000     0.807000000     5.118000000
H    -0.501000000     1.536000000     5.921000000
O     6.689000000    -1.516000000    -0.915000000
H     6.992000000    -0.700000000    -1.314000000
H     7.125000000    -2.204000000    -1.417000000
O    -3.741000000     1.287000000    -6.927000000
H    -4.401000000     0.971000000    -6.311000000
H    -3.045000000     1.639000000    -6.373000000
O    -7.070000000     0.838000000     3.528000000
H    -6.583000000     0.083000000     3.197000000
H    -7.818000000     0.918000000     2.937000000
O    -2.025000000     4.869000000    -0.147000000
H    -1.306000000     4.389000000     0.264000000
H    -1.650000000     5.217000000    -0.955000000
O     0.749000000     2.987000000     0.165000000
H     0.544000000     2.056000000     0.078000000
H     0.995000000     3.262000000    -0.718000000
O     6.068000000    -1.988000000     1.543000000
H     5.341000000    -1.544000000     1.980000000
H     6.015000000    -1.696000000     0.633000000
O    -6.894000000     1.283000000     0.466000000
H    -7.317000000     0.611000000    -0.069000000
H    -5.959000000     1.095000000     0.391000000
O     1.287000000     1.953000000    -5.018000000
H     0.572000000     1.387000000    -4.726000000
H     0.958000000     2.361000000    -5.819000000
O    -2.577000000    -2.912000000     1.982000000
H    -3.199000000    -2.214000000     1.777000000
H    -2.031000000    -2.549000000     2.680000000
O     7.280000000     0.999000000    -1.711000000
H     6.495000000     1.498000000    -1.936000000
H     7.994000000     1.633000000    -1.776000000
O     1.706000000     4.057000000     2.506000000
H     1.451000000     3.658000000     1.674000000
H     0.913000000     4.495000000     2.814000000
O     4.694000000    -3.871000000    -1.238000000
H     3.978000000    -3.699000000    -0.626000000
H     5.434000000    -3.377000000    -0.885000000
O     1.717000000    -1.067000000    -5.637000000
H     1.468000000    -1.678000000    -6.331000000
H     0.906000000    -0.606000000    -5.423000000
O    -6.750000000    -2.420000000    -2.994000000
H    -6.563000000    -1.983000000    -2.163000000
H    -7.568000000    -2.025000000    -3.295000000
O    -5.409000000    -1.024000000     2.631000000
H    -5.719000000    -1.869000000     2.304000000
H    -4.787000000    -0.724000000     1.968000000
O     0.572000000    -3.676000000     2.990000000
H     0.287000000    -3.512000000     2.091000000
H     0.165000000    -2.977000000     3.502000000
O     4.093000000     3.191000000    -0.081000000
H     4.457000000     2.929000000     0.765000000
H     3.311000000     3.696000000     0.141000000
O     3.143000000    -5.200000000    -2.993000000
H     3.869000000    -4.593000000    -2.847000000
H     2.686000000    -5.234000000    -2.153000000
O    -4.911000000    -0.882000000     5.654000000
H    -4.960000000     0.030000000     5.941000000
H    -5.158000000    -0.856000000     4.730000000
O     3.124000000    -3.938000000     1.497000000
H     3.575000000    -4.746000000     1.743000000
H     2.464000000    -3.815000000     2.178000000
O     6.536000000    -2.195000000    -4.628000000
H     5.828000000    -1.737000000    -4.176000000
H     6.093000000    -2.734000000    -5.283000000
O    -5.179000000     4.058000000     1.789000000
H    -5.417000000     3.165000000     2.040000000
H    -4.610000000     3.949000000     1.028000000
O    -4.093000000     3.390000000    -0.906000000
H    -3.301000000     3.865000000    -0.654000000
H    -3.809000000     2.481000000    -0.999000000
O     4.101000000    -0.324000000    -4.423000000
H     3.274000000    -0.460000000    -4.884000000
H     3.898000000     0.332000000    -3.756000000
O    -6.738000000     3.025000000    -2.593000000
H    -7.114000000     2.167000000    -2.397000000
H    -6.213000000     3.238000000    -1.822000000
O    -3.353000000     0.384000000    -3.946000000
H    -4.218000000     0.361000000    -4.354000000
H    -3.531000000     0.363000000    -3.006000000
O    -1.143000000    -1.988000000     4.278000000
H    -0.854000000    -1.239000000     4.799000000
H    -1.793000000    -2.426000000     4.827000000
O     8.342000000    -0.254000000     0.965000000
H     7.604000000    -0.656000000     0.507000000
H     8.064000000    -0.215000000     1.880000000
O    -3.354000000    -4.356000000    -0.675000000
H    -3.197000000    -4.616000000     0.233000000
H    -4.033000000    -3.683000000    -0.617000000
O     4.486000000     1.553000000    -2.511000000
H     4.282000000     0.773000000    -1.995000000
H     4.333000000     2.284000000    -1.912000000
O    -0.372000000    -3.258000000     0.601000000
H    -0.523000000    -3.530000000    -0.304000000
H    -1.236000000    -2.999000000     0.921000000
O     5.720000000     2.710000000     2.289000000
H     5.889000000     2.501000000     3.207000000
H     6.254000000     3.485000000     2.117000000
O    -5.041000000    -2.063000000    -0.655000000
H    -5.756000000    -2.263000000    -0.051000000
H    -4.670000000    -1.245000000    -0.323000000
O     2.159000000     1.108000000     4.483000000
H     1.820000000     1.527000000     3.692000000
H     2.679000000     1.788000000     4.911000000
O    -0.855000000    -0.083000000    -5.321000000
H    -1.092000000    -0.989000000    -5.125000000
H    -1.388000000     0.439000000    -4.720000000
O     2.960000000    -3.996000000     4.921000000
H     2.516000000    -4.833000000     4.787000000
H     2.293000000    -3.430000000     5.311000000
O    -5.678000000     0.108000000    -5.339000000
H    -6.032000000    -0.734000000    -5.627000000
H    -6.433000000     0.696000000    -5.335000000
O    -6.575000000    -3.310000000     1.524000000
H    -7.521000000    -3.357000000     1.382000000
H    -6.334000000    -4.188000000     1.820000000
