161
-3048.88574
C    -1.280000000     0.336000000     0.749000000
H    -2.152000000     0.521000000     1.371000000
C     0.007000000     0.615000000     1.191000000
H     0.187000000     1.098000000     2.148000000
C     1.099000000     0.122000000     0.500000000
C     2.530000000     0.258000000     0.951000000
H     3.122000000    -0.646000000     0.796000000
H     3.092000000     1.047000000     0.446000000
H     2.545000000     0.451000000     2.025000000
C     0.923000000    -0.334000000    -0.764000000
H     1.811000000    -0.574000000    -1.344000000
C    -0.360000000    -0.534000000    -1.274000000
H    -0.413000000    -1.014000000    -2.248000000
C    -1.455000000    -0.237000000    -0.534000000
C    -2.857000000    -0.416000000    -1.128000000
O    -3.053000000    -1.047000000    -2.215000000
O    -3.743000000     0.347000000    -0.671000000
O    -0.351000000    -1.370000000    -6.288000000
H    -0.811000000    -0.893000000    -6.979000000
H    -0.064000000    -2.182000000    -6.707000000
O     5.420000000     2.511000000     0.237000000
H     4.550000000     2.742000000    -0.088000000
H     5.456000000     1.556000000     0.169000000
O    -2.278000000     2.576000000    -3.020000000
H    -2.926000000     2.977000000    -2.440000000
H    -2.602000000     1.687000000    -3.162000000
O     6.405000000    -1.242000000     3.792000000
H     5.711000000    -0.966000000     4.391000000
H     6.023000000    -1.970000000     3.301000000
O     0.690000000    -2.393000000     2.293000000
H     0.592000000    -1.544000000     1.861000000
H     1.259000000    -2.894000000     1.709000000
O    -6.032000000     0.923000000    -1.915000000
H    -6.074000000     1.879000000    -1.923000000
H    -5.262000000     0.721000000    -1.383000000
O    -2.742000000     4.791000000    -1.105000000
H    -3.510000000     5.327000000    -1.304000000
H    -2.893000000     4.479000000    -0.213000000
O     1.828000000    -1.291000000     6.530000000
H     1.084000000    -1.789000000     6.193000000
H     2.450000000    -1.270000000     5.802000000
O    -4.241000000    -3.167000000    -1.176000000
H    -3.703000000    -3.120000000    -0.385000000
H    -3.983000000    -2.400000000    -1.687000000
O     3.223000000     3.661000000    -1.018000000
H     3.611000000     4.272000000    -1.644000000
H     2.380000000     3.425000000    -1.405000000
O     0.685000000     5.174000000     0.470000000
H     1.287000000     4.525000000     0.836000000
H    -0.002000000     4.655000000     0.054000000
O    -2.405000000    -4.719000000    -2.759000000
H    -2.366000000    -4.361000000    -3.645000000
H    -3.282000000    -4.496000000    -2.448000000
O     1.034000000     2.613000000     4.629000000
H     1.845000000     2.534000000     5.131000000
H     0.343000000     2.628000000     5.292000000
O     1.340000000     5.812000000     3.788000000
H     1.696000000     5.185000000     3.158000000
H     1.905000000     5.728000000     4.555000000
O     0.579000000     2.625000000    -2.089000000
H    -0.313000000     2.342000000    -2.291000000
H     0.922000000     1.942000000    -1.512000000
O     4.259000000    -3.003000000     2.346000000
H     3.715000000    -2.899000000     1.565000000
H     4.239000000    -3.942000000     2.528000000
O     5.026000000    -0.176000000     6.097000000
H     4.415000000     0.447000000     6.491000000
H     4.484000000    -0.932000000     5.870000000
O     4.954000000     3.940000000     2.583000000
H     5.633000000     3.905000000     3.257000000
H     5.301000000     3.409000000     1.866000000
O    -5.161000000     1.834000000     0.874000000
H    -4.502000000     1.246000000     0.506000000
H    -4.789000000     2.709000000     0.765000000
O     7.563000000     3.665000000    -0.914000000
H     6.862000000     3.194000000    -0.463000000
H     8.230000000     3.804000000    -0.241000000
O    -0.493000000    -3.557000000    -1.276000000
H    -1.179000000    -4.027000000    -1.750000000
H    -0.964000000    -3.048000000    -0.616000000
O    -6.346000000    -0.220000000    -5.646000000
H    -5.543000000    -0.590000000    -5.279000000
H    -6.604000000    -0.840000000    -6.328000000
O    -4.135000000     0.646000000    -3.699000000
H    -5.017000000     0.809000000    -3.366000000
H    -3.831000000    -0.119000000    -3.211000000
O     2.158000000     2.908000000    -5.125000000
H     2.992000000     3.205000000    -4.761000000
H     1.841000000     2.259000000    -4.497000000
O     6.997000000    -3.049000000     0.887000000
H     6.163000000    -3.235000000     1.317000000
H     7.660000000    -3.312000000     1.526000000
O     2.151000000     3.401000000     2.161000000
H     2.962000000     2.918000000     2.004000000
H     1.740000000     2.947000000     2.897000000
O    -7.882000000    -1.135000000    -3.003000000
H    -7.217000000    -0.617000000    -2.551000000
H    -8.330000000    -1.613000000    -2.305000000
O     5.509000000    -0.322000000    -0.268000000
H     5.615000000    -0.559000000     0.654000000
H     5.994000000    -0.995000000    -0.745000000
O    -3.182000000    -1.584000000     2.989000000
H    -2.524000000    -1.170000000     3.547000000
H    -3.996000000    -1.515000000     3.488000000
O     1.240000000    -0.844000000    -4.262000000
H     1.440000000    -1.726000000    -3.951000000
H     0.604000000    -0.976000000    -4.965000000
O    -3.469000000     4.242000000     1.406000000
H    -3.185000000     3.875000000     2.243000000
H    -4.072000000     4.945000000     1.645000000
O     3.734000000    -0.517000000    -5.433000000
H     2.900000000    -0.709000000    -5.004000000
H     3.842000000    -1.220000000    -6.073000000
O    -2.506000000    -2.314000000    -4.741000000
H    -1.874000000    -1.910000000    -5.336000000
H    -2.361000000    -1.875000000    -3.903000000
O    -1.610000000     3.667000000     3.644000000
H    -0.670000000     3.725000000     3.472000000
H    -1.726000000     2.810000000     4.054000000
O     4.053000000     5.846000000     0.814000000
H     3.565000000     5.280000000     0.216000000
H     4.327000000     5.265000000     1.523000000
O     6.134000000    -2.306000000    -3.129000000
H     5.904000000    -1.472000000    -3.538000000
H     5.300000000    -2.768000000    -3.040000000
O     2.410000000    -3.310000000     0.083000000
H     2.494000000    -4.154000000    -0.362000000
H     2.098000000    -2.712000000    -0.596000000
O     1.175000000    -5.601000000    -1.571000000
H     0.626000000    -6.369000000    -1.732000000
H     0.575000000    -4.858000000    -1.644000000
O    -5.448000000     1.040000000     3.513000000
H    -5.978000000     1.793000000     3.776000000
H    -5.297000000     1.169000000     2.577000000
O    -2.333000000    -2.903000000     0.769000000
H    -2.244000000    -3.782000000     1.137000000
H    -2.636000000    -2.366000000     1.501000000
O    -5.514000000     3.372000000    -2.447000000
H    -5.887000000     3.646000000    -3.285000000
H    -5.221000000     4.186000000    -2.037000000
O     2.287000000    -3.415000000    -3.457000000
H     1.851000000    -3.919000000    -2.770000000
H     3.184000000    -3.750000000    -3.467000000
O    -6.941000000    -1.400000000    -0.305000000
H    -6.397000000    -0.613000000    -0.304000000
H    -6.322000000    -2.119000000    -0.180000000
O     5.540000000     0.618000000    -3.698000000
H     4.857000000     0.316000000    -4.297000000
H     5.188000000     1.423000000    -3.319000000
O     3.632000000    -2.074000000     4.762000000
H     3.348000000    -2.941000000     5.049000000
H     3.764000000    -2.165000000     3.818000000
O    -3.052000000     1.459000000     5.328000000
H    -3.919000000     1.331000000     4.943000000
H    -3.228000000     1.750000000     6.223000000
O    -2.847000000     2.002000000    -5.977000000
H    -3.299000000     1.598000000    -5.236000000
H    -2.188000000     2.568000000    -5.575000000
O    -8.327000000     2.393000000     0.707000000
H    -8.328000000     2.088000000    -0.200000000
H    -7.403000000     2.408000000     0.955000000
