161
-3085.35784
C    -1.038000000     0.434000000     0.951000000
H    -1.717000000     0.673000000     1.766000000
C     0.279000000     0.187000000     1.278000000
H     0.648000000     0.188000000     2.300000000
C     1.200000000    -0.125000000     0.207000000
C     2.693000000    -0.233000000     0.579000000
H     3.340000000    -0.401000000    -0.285000000
H     3.115000000     0.700000000     0.956000000
H     2.767000000    -0.997000000     1.356000000
C     0.712000000    -0.299000000    -1.022000000
H     1.407000000    -0.609000000    -1.799000000
C    -0.684000000    -0.235000000    -1.322000000
H    -1.055000000    -0.347000000    -2.338000000
C    -1.524000000     0.204000000    -0.324000000
C    -2.984000000     0.286000000    -0.662000000
O    -3.300000000     0.299000000    -1.839000000
O    -3.851000000     0.267000000     0.205000000
O     1.178000000     2.842000000    -3.597000000
H     1.652000000     3.654000000    -3.779000000
H     1.712000000     2.395000000    -2.940000000
O    -6.822000000     1.900000000    -4.092000000
H    -7.385000000     2.578000000    -4.467000000
H    -7.010000000     1.924000000    -3.154000000
O    -3.977000000     2.534000000     1.823000000
H    -3.541000000     3.064000000     1.155000000
H    -3.625000000     1.653000000     1.697000000
O    -2.826000000     5.001000000     2.569000000
H    -3.415000000     4.249000000     2.504000000
H    -2.246000000     4.917000000     1.812000000
O     1.022000000    -1.399000000     5.481000000
H     0.386000000    -0.717000000     5.266000000
H     1.804000000    -1.162000000     4.982000000
O    -2.864000000     2.279000000     4.363000000
H    -3.399000000     2.112000000     3.588000000
H    -3.461000000     2.703000000     4.980000000
O     4.927000000     0.889000000    -2.329000000
H     4.593000000     0.442000000    -3.107000000
H     4.971000000     0.206000000    -1.660000000
O     5.954000000    -2.218000000    -1.165000000
H     5.816000000    -3.163000000    -1.238000000
H     6.652000000    -2.029000000    -1.791000000
O    -6.873000000     1.733000000     2.661000000
H    -7.600000000     2.245000000     3.016000000
H    -6.532000000     2.267000000     1.943000000
O    -3.435000000     4.386000000    -0.476000000
H    -2.718000000     3.960000000    -0.945000000
H    -4.217000000     3.907000000    -0.747000000
O     6.574000000     3.294000000    -2.385000000
H     5.704000000     2.987000000    -2.640000000
H     7.102000000     3.204000000    -3.178000000
O     5.089000000    -4.961000000     2.442000000
H     4.142000000    -5.094000000     2.392000000
H     5.251000000    -4.188000000     1.901000000
O    -6.948000000    -1.057000000    -3.927000000
H    -7.180000000    -0.148000000    -3.739000000
H    -7.674000000    -1.568000000    -3.570000000
O     3.935000000    -4.124000000    -2.412000000
H     3.709000000    -4.422000000    -1.531000000
H     3.108000000    -3.815000000    -2.780000000
O    -0.821000000     3.001000000    -1.570000000
H    -0.327000000     3.285000000    -2.339000000
H    -0.634000000     2.065000000    -1.497000000
O    -3.303000000     3.941000000    -5.156000000
H    -2.363000000     4.122000000    -5.186000000
H    -3.390000000     3.232000000    -4.518000000
O     5.151000000    -2.347000000     1.502000000
H     6.098000000    -2.485000000     1.520000000
H     4.947000000    -2.201000000     0.578000000
O    -5.372000000     2.583000000    -1.190000000
H    -6.245000000     2.256000000    -0.973000000
H    -4.780000000     1.882000000    -0.919000000
O     1.406000000     3.006000000     2.972000000
H     2.052000000     2.309000000     3.088000000
H     1.716000000     3.716000000     3.534000000
O    -0.839000000     4.679000000     4.481000000
H    -1.655000000     4.306000000     4.148000000
H    -0.205000000     4.532000000     3.780000000
O     3.466000000     1.582000000     3.777000000
H     3.741000000     0.668000000     3.698000000
H     3.861000000     1.880000000     4.596000000
O    -1.219000000     1.022000000    -4.610000000
H    -2.065000000     1.418000000    -4.399000000
H    -0.574000000     1.665000000    -4.316000000
O    -2.489000000    -4.089000000     2.155000000
H    -3.044000000    -3.371000000     1.848000000
H    -3.039000000    -4.569000000     2.774000000
O    -3.979000000    -1.952000000     1.794000000
H    -4.018000000    -1.196000000     1.208000000
H    -4.414000000    -1.658000000     2.594000000
O    -0.890000000     3.517000000     1.278000000
H    -0.093000000     3.128000000     1.638000000
H    -0.885000000     3.261000000     0.356000000
O    -1.085000000     0.427000000     5.554000000
H    -1.033000000     1.011000000     6.311000000
H    -1.545000000     0.939000000     4.888000000
O     1.670000000    -3.449000000    -3.872000000
H     1.528000000    -2.700000000    -4.450000000
H     0.959000000    -4.054000000    -4.084000000
O    -2.632000000    -4.004000000    -1.859000000
H    -3.139000000    -3.232000000    -2.109000000
H    -3.026000000    -4.720000000    -2.357000000
O    -5.367000000    -0.378000000     3.476000000
H    -6.216000000    -0.722000000     3.754000000
H    -5.564000000     0.488000000     3.119000000
O     2.545000000    -5.041000000    -0.207000000
H     2.377000000    -4.928000000     0.728000000
H     1.683000000    -4.964000000    -0.616000000
O    -2.504000000    -2.514000000     5.478000000
H    -2.443000000    -1.573000000     5.316000000
H    -3.188000000    -2.817000000     4.881000000
O     2.675000000     2.717000000    -1.141000000
H     3.062000000     3.059000000    -0.336000000
H     3.288000000     2.044000000    -1.436000000
O     0.112000000    -3.288000000     2.726000000
H    -0.768000000    -3.460000000     2.392000000
H     0.215000000    -2.339000000     2.655000000
O     2.295000000    -4.884000000     2.449000000
H     2.185000000    -5.581000000     3.096000000
H     1.593000000    -4.263000000     2.644000000
O     3.495000000    -0.180000000    -4.690000000
H     2.544000000    -0.268000000    -4.747000000
H     3.816000000    -1.081000000    -4.650000000
O    -3.954000000     1.655000000    -3.938000000
H    -4.897000000     1.815000000    -3.953000000
H    -3.817000000     1.097000000    -3.173000000
O    -6.721000000     4.593000000    -2.293000000
H    -6.159000000     5.349000000    -2.461000000
H    -6.131000000     3.931000000    -1.932000000
O    -4.501000000    -1.717000000    -3.170000000
H    -5.374000000    -1.394000000    -3.392000000
H    -4.060000000    -0.965000000    -2.774000000
O     6.658000000     3.198000000     0.425000000
H     6.506000000     3.032000000    -0.505000000
H     5.784000000     3.196000000     0.815000000
O    -5.711000000    -3.746000000     0.177000000
H    -6.058000000    -4.615000000     0.377000000
H    -5.021000000    -3.608000000     0.827000000
O     3.805000000    -1.253000000     4.011000000
H     4.638000000    -1.303000000     4.480000000
H     3.900000000    -1.872000000     3.287000000
O     0.350000000    -4.600000000    -1.829000000
H    -0.576000000    -4.356000000    -1.809000000
H     0.690000000    -4.185000000    -2.622000000
O     4.199000000     3.515000000     1.394000000
H     4.085000000     2.923000000     2.137000000
H     3.966000000     4.378000000     1.737000000
O    -6.269000000    -0.895000000    -0.032000000
H    -5.904000000    -1.780000000    -0.069000000
H    -5.503000000    -0.323000000     0.018000000
O    -2.662000000    -1.152000000    -5.102000000
H    -3.207000000    -1.323000000    -4.334000000
H    -2.169000000    -0.363000000    -4.875000000
O    -7.819000000     1.013000000    -1.387000000
H    -7.611000000     0.404000000    -0.679000000
H    -8.771000000     1.108000000    -1.350000000
O     0.887000000    -1.181000000    -5.195000000
H     0.719000000    -1.310000000    -6.129000000
H     0.130000000    -0.685000000    -4.882000000
O     4.861000000    -2.899000000    -4.564000000
H     4.651000000    -3.355000000    -3.749000000
H     5.817000000    -2.867000000    -4.581000000
