161
-3083.08379
C     0.307000000    -0.347000000    -1.353000000
H     0.384000000    -0.722000000    -2.371000000
C     0.395000000    -1.229000000    -0.245000000
H     0.648000000    -2.268000000    -0.439000000
C     0.135000000    -0.750000000     0.984000000
C     0.025000000    -1.743000000     2.123000000
H     0.670000000    -1.351000000     2.912000000
H    -0.937000000    -1.625000000     2.626000000
H     0.328000000    -2.761000000     1.870000000
C    -0.255000000     0.571000000     1.162000000
H    -0.522000000     0.905000000     2.161000000
C    -0.314000000     1.468000000     0.081000000
H    -0.466000000     2.527000000     0.273000000
C    -0.039000000     1.024000000    -1.239000000
C    -0.106000000     1.858000000    -2.472000000
O    -0.295000000     3.094000000    -2.482000000
O     0.039000000     1.354000000    -3.584000000
O     2.612000000     0.273000000    -4.701000000
H     2.753000000     0.017000000    -3.790000000
H     1.808000000     0.792000000    -4.682000000
O     1.757000000     5.006000000    -2.950000000
H     1.855000000     5.262000000    -3.867000000
H     1.018000000     4.398000000    -2.949000000
O     3.514000000    -0.953000000    -2.445000000
H     3.517000000    -0.573000000    -1.566000000
H     3.357000000    -1.886000000    -2.302000000
O     5.302000000     0.991000000    -3.386000000
H     4.658000000     1.691000000    -3.494000000
H     4.785000000     0.229000000    -3.124000000
O    -4.620000000     1.860000000     3.641000000
H    -5.288000000     1.886000000     4.326000000
H    -4.827000000     1.075000000     3.134000000
O     3.891000000     3.357000000    -2.370000000
H     3.301000000     4.090000000    -2.549000000
H     3.801000000     3.202000000    -1.429000000
O    -3.137000000    -0.099000000    -3.857000000
H    -3.273000000    -0.728000000    -3.148000000
H    -2.266000000    -0.305000000    -4.195000000
O    -2.899000000    -0.074000000    -0.438000000
H    -2.635000000    -0.988000000    -0.542000000
H    -2.082000000     0.393000000    -0.262000000
O     2.782000000    -4.476000000     3.823000000
H     3.637000000    -4.664000000     4.209000000
H     2.914000000    -3.666000000     3.329000000
O     0.702000000    -1.326000000     5.699000000
H     0.714000000    -0.687000000     4.987000000
H     1.210000000    -0.914000000     6.398000000
O    -2.279000000    -0.451000000     5.472000000
H    -1.597000000    -0.507000000     4.803000000
H    -2.425000000     0.488000000     5.586000000
O     4.941000000    -4.708000000    -0.669000000
H     5.236000000    -4.353000000     0.170000000
H     4.275000000    -4.090000000    -0.970000000
O    -4.564000000    -4.401000000     3.424000000
H    -4.074000000    -3.613000000     3.658000000
H    -4.028000000    -5.123000000     3.751000000
O    -0.905000000     1.656000000    -6.971000000
H    -0.376000000     1.940000000    -7.716000000
H    -1.525000000     2.372000000    -6.831000000
O    -2.394000000    -2.996000000     0.415000000
H    -2.585000000    -2.945000000     1.351000000
H    -1.850000000    -3.778000000     0.323000000
O    -0.117000000     3.583000000     2.955000000
H     0.359000000     4.161000000     2.359000000
H    -1.029000000     3.647000000     2.672000000
O    -5.093000000    -0.334000000     1.829000000
H    -4.419000000    -0.219000000     1.160000000
H    -5.828000000    -0.733000000     1.363000000
O     2.035000000    -6.519000000    -1.470000000
H     1.329000000    -6.653000000    -0.838000000
H     2.683000000    -7.189000000    -1.251000000
O     0.366000000    -3.133000000    -3.482000000
H    -0.383000000    -3.688000000    -3.264000000
H    -0.023000000    -2.338000000    -3.847000000
O    -0.714000000    -0.802000000    -4.840000000
H    -0.672000000    -0.741000000    -5.794000000
H    -0.528000000     0.086000000    -4.535000000
O     1.005000000     3.066000000    -5.210000000
H     0.449000000     2.723000000    -5.909000000
H     0.779000000     2.539000000    -4.443000000
O     2.349000000     3.410000000    -0.075000000
H     1.732000000     4.115000000    -0.271000000
H     2.879000000     3.749000000     0.646000000
O     3.368000000    -2.483000000     1.878000000
H     2.795000000    -2.604000000     1.122000000
H     4.251000000    -2.618000000     1.533000000
O    -1.544000000    -4.763000000    -2.496000000
H    -1.756000000    -5.277000000    -3.275000000
H    -1.682000000    -5.366000000    -1.766000000
O     2.872000000    -2.851000000     6.497000000
H     2.625000000    -2.107000000     7.046000000
H     2.234000000    -2.843000000     5.783000000
O     0.294000000     5.563000000     4.942000000
H     0.269000000     4.728000000     4.474000000
H     0.874000000     5.402000000     5.686000000
O    -2.461000000     2.252000000     6.153000000
H    -2.791000000     2.528000000     5.298000000
H    -2.710000000     2.962000000     6.745000000
O     0.566000000     5.990000000    -0.496000000
H     1.002000000     5.810000000    -1.330000000
H    -0.368000000     5.948000000    -0.700000000
O    -0.716000000     7.233000000    -2.712000000
H    -1.536000000     6.991000000    -2.283000000
H    -0.358000000     6.405000000    -3.031000000
O     3.643000000    -1.448000000    -6.446000000
H     3.272000000    -0.943000000    -5.722000000
H     4.509000000    -1.066000000    -6.585000000
O     1.623000000     5.378000000     1.815000000
H     1.643000000     6.206000000     2.294000000
H     1.283000000     5.609000000     0.950000000
O     0.803000000     1.236000000     4.278000000
H     1.732000000     1.411000000     4.428000000
H     0.489000000     2.004000000     3.800000000
O    -3.411000000    -2.548000000    -2.086000000
H    -3.193000000    -3.374000000    -2.516000000
H    -3.032000000    -2.627000000    -1.210000000
O     2.093000000    -6.358000000     1.931000000
H     2.120000000    -7.235000000     2.315000000
H     2.284000000    -5.771000000     2.663000000
O    -2.192000000     4.751000000    -1.309000000
H    -2.832000000     5.092000000    -1.934000000
H    -1.718000000     4.077000000    -1.796000000
O    -2.703000000     3.953000000     1.453000000
H    -2.622000000     4.457000000     0.643000000
H    -3.638000000     3.974000000     1.656000000
O     1.069000000    -4.147000000    -6.298000000
H     1.459000000    -4.774000000    -5.689000000
H     0.888000000    -3.374000000    -5.763000000
O    -0.672000000    -3.441000000     6.123000000
H    -1.504000000    -3.001000000     6.300000000
H    -0.087000000    -2.741000000     5.833000000
O    -0.981000000    -5.147000000     0.850000000
H    -0.285000000    -5.256000000     1.499000000
H    -0.955000000    -5.952000000     0.334000000
O    -3.401000000    -1.836000000     3.217000000
H    -3.163000000    -1.372000000     4.019000000
H    -4.129000000    -1.331000000     2.855000000
O    -1.953000000     4.406000000    -4.396000000
H    -1.574000000     4.728000000    -5.214000000
H    -1.236000000     3.942000000    -3.965000000
O     3.676000000     1.671000000     4.754000000
H     3.894000000     1.466000000     3.845000000
H     4.438000000     2.149000000     5.082000000
O     3.588000000     2.200000000    -6.295000000
H     3.648000000     1.498000000    -5.648000000
H     2.747000000     2.620000000    -6.116000000
O    -5.137000000     1.836000000    -0.689000000
H    -5.678000000     1.625000000    -1.450000000
H    -4.372000000     1.267000000    -0.773000000
O     2.534000000    -3.760000000    -1.620000000
H     2.398000000    -4.687000000    -1.425000000
H     1.895000000    -3.564000000    -2.306000000
O     4.584000000     1.260000000     2.156000000
H     4.850000000     2.015000000     1.632000000
H     4.087000000     0.710000000     1.550000000
O    -3.864000000     2.454000000    -4.872000000
H    -3.704000000     1.771000000    -4.221000000
H    -3.189000000     3.111000000    -4.700000000
O     3.110000000     0.291000000     0.147000000
H     2.661000000     1.128000000     0.261000000
H     2.465000000    -0.365000000     0.410000000
