161
-3042.35779
C     0.079000000    -0.755000000    -1.327000000
H     0.129000000    -1.341000000    -2.241000000
C    -0.050000000    -1.356000000    -0.053000000
H     0.028000000    -2.428000000     0.110000000
C    -0.181000000    -0.565000000     1.094000000
C    -0.191000000    -1.133000000     2.496000000
H     0.457000000    -0.533000000     3.138000000
H    -1.208000000    -1.129000000     2.892000000
H     0.280000000    -2.111000000     2.613000000
C    -0.294000000     0.854000000     0.941000000
H    -0.356000000     1.475000000     1.831000000
C    -0.021000000     1.458000000    -0.275000000
H    -0.017000000     2.537000000    -0.404000000
C     0.122000000     0.675000000    -1.418000000
C     0.365000000     1.270000000    -2.788000000
O     0.435000000     2.507000000    -2.810000000
O     0.422000000     0.582000000    -3.791000000
O     0.070000000    -4.450000000     5.785000000
H     0.985000000    -4.728000000     5.738000000
H    -0.095000000    -4.326000000     6.719000000
O    -3.229000000    -2.976000000    -5.208000000
H    -3.260000000    -3.086000000    -4.258000000
H    -2.462000000    -2.424000000    -5.361000000
O     2.832000000    -0.428000000    -4.772000000
H     3.447000000    -0.127000000    -4.103000000
H     1.985000000    -0.079000000    -4.495000000
O     4.740000000     0.334000000    -2.922000000
H     4.178000000     0.438000000    -2.154000000
H     5.599000000     0.643000000    -2.634000000
O     4.597000000     2.229000000    -5.152000000
H     4.207000000     2.288000000    -4.279000000
H     4.909000000     1.327000000    -5.214000000
O    -4.688000000     0.296000000     2.877000000
H    -4.466000000    -0.022000000     3.752000000
H    -4.620000000     1.248000000     2.943000000
O     2.925000000     3.124000000    -2.856000000
H     2.040000000     2.790000000    -2.710000000
H     3.082000000     3.717000000    -2.122000000
O    -3.757000000     0.361000000    -2.582000000
H    -3.647000000    -0.585000000    -2.483000000
H    -3.618000000     0.522000000    -3.515000000
O    -3.233000000     2.669000000     2.548000000
H    -2.765000000     2.142000000     1.900000000
H    -2.583000000     3.300000000     2.858000000
O     1.100000000    -0.349000000     5.847000000
H     1.651000000    -0.307000000     5.066000000
H     0.714000000     0.525000000     5.916000000
O     4.181000000    -3.836000000    -0.106000000
H     3.862000000    -3.114000000     0.435000000
H     3.446000000    -4.049000000    -0.680000000
O    -1.773000000    -1.208000000     5.630000000
H    -0.885000000    -0.950000000     5.384000000
H    -2.112000000    -0.459000000     6.121000000
O    -2.638000000    -4.158000000     0.353000000
H    -2.962000000    -3.357000000     0.767000000
H    -1.883000000    -4.413000000     0.884000000
O     2.735000000     7.117000000    -2.270000000
H     3.193000000     6.626000000    -2.952000000
H     1.954000000     6.596000000    -2.083000000
O     1.605000000     4.184000000     1.816000000
H     2.394000000     4.298000000     1.286000000
H     0.980000000     4.811000000     1.453000000
O    -4.151000000    -2.189000000     1.562000000
H    -4.320000000    -1.304000000     1.884000000
H    -4.990000000    -2.478000000     1.202000000
O     1.408000000    -6.533000000     0.017000000
H     2.195000000    -7.015000000     0.270000000
H     0.817000000    -7.203000000    -0.327000000
O     0.160000000    -0.906000000    -7.821000000
H     1.035000000    -1.091000000    -8.160000000
H    -0.180000000    -0.220000000    -8.396000000
O     0.689000000    -4.272000000    -4.635000000
H     0.220000000    -3.452000000    -4.478000000
H     0.277000000    -4.639000000    -5.417000000
O    -0.694000000    -1.492000000    -5.198000000
H    -0.368000000    -1.274000000    -6.072000000
H    -0.476000000    -0.729000000    -4.664000000
O    -0.857000000     1.901000000    -5.766000000
H    -0.314000000     1.575000000    -6.484000000
H    -0.546000000     1.424000000    -4.996000000
O     3.700000000     4.323000000    -0.276000000
H     4.277000000     4.974000000    -0.676000000
H     4.280000000     3.596000000    -0.051000000
O     1.394000000     4.538000000    -6.886000000
H     1.381000000     3.583000000    -6.831000000
H     0.906000000     4.739000000    -7.685000000
O     1.426000000     4.640000000     4.342000000
H     1.472000000     4.500000000     3.396000000
H     2.220000000     4.229000000     4.683000000
O     0.435000000     5.216000000    -2.943000000
H     0.407000000     5.610000000    -3.815000000
H     0.670000000     4.301000000    -3.102000000
O    -1.223000000     6.917000000    -1.367000000
H    -2.053000000     7.009000000    -1.836000000
H    -0.651000000     6.456000000    -1.980000000
O    -0.528000000    -2.489000000     7.962000000
H    -0.883000000    -2.023000000     7.205000000
H     0.081000000    -1.869000000     8.361000000
O     3.698000000     1.702000000     2.303000000
H     4.487000000     2.080000000     1.914000000
H     3.204000000     2.456000000     2.626000000
O    -2.719000000    -2.497000000    -2.535000000
H    -2.925000000    -3.426000000    -2.431000000
H    -1.802000000    -2.424000000    -2.271000000
O     2.474000000    -2.417000000     4.384000000
H     3.062000000    -3.080000000     4.746000000
H     1.598000000    -2.711000000     4.635000000
O    -2.609000000     4.421000000    -0.905000000
H    -1.939000000     5.030000000    -0.593000000
H    -2.240000000     4.048000000    -1.706000000
O    -1.610000000     4.447000000     4.013000000
H    -2.007000000     5.122000000     3.462000000
H    -0.704000000     4.732000000     4.126000000
O    -3.458000000     1.621000000    -5.141000000
H    -2.603000000     1.289000000    -5.417000000
H    -3.556000000     2.449000000    -5.613000000
O    -0.279000000     2.449000000     5.747000000
H     0.092000000     3.141000000     5.198000000
H    -0.793000000     2.916000000     6.405000000
O    -1.617000000    -5.626000000     3.806000000
H    -1.151000000    -5.672000000     2.971000000
H    -1.085000000    -5.041000000     4.345000000
O    -0.144000000    -4.746000000     1.558000000
H     0.375000000    -3.953000000     1.694000000
H     0.471000000    -5.371000000     1.175000000
O    -3.431000000    -2.956000000     4.475000000
H    -2.829000000    -2.213000000     4.521000000
H    -3.832000000    -2.886000000     3.608000000
O    -2.087000000     3.197000000    -3.292000000
H    -2.306000000     2.494000000    -3.903000000
H    -1.134000000     3.161000000    -3.217000000
O     1.871000000     1.830000000    -6.772000000
H     2.158000000     1.040000000    -7.232000000
H     2.307000000     1.782000000    -5.921000000
O     3.902000000     5.456000000    -4.017000000
H     3.618000000     4.578000000    -3.763000000
H     3.357000000     5.676000000    -4.773000000
O    -1.810000000     4.645000000    -6.985000000
H    -1.221000000     4.775000000    -7.728000000
H    -1.614000000     3.761000000    -6.675000000
O     3.509000000    -1.747000000     1.868000000
H     3.180000000    -1.644000000     2.761000000
H     3.338000000    -0.902000000     1.451000000
O    -3.063000000     6.229000000    -3.492000000
H    -2.943000000     5.280000000    -3.477000000
H    -3.925000000     6.369000000    -3.100000000
O     1.835000000    -4.178000000    -1.646000000
H     1.589000000    -4.869000000    -1.031000000
H     1.263000000    -4.314000000    -2.402000000
O    -3.341000000     2.600000000     5.603000000
H    -2.774000000     1.976000000     6.056000000
H    -2.801000000     2.941000000     4.891000000
O     4.726000000    -0.201000000    -6.715000000
H     4.254000000    -0.549000000    -5.959000000
H     5.029000000    -0.976000000    -7.188000000
O    -4.273000000     2.446000000    -0.778000000
H    -3.938000000     1.876000000    -1.471000000
H    -3.561000000     3.064000000    -0.611000000
O     3.094000000     0.218000000    -0.639000000
H     2.199000000    -0.118000000    -0.685000000
H     3.035000000     0.980000000    -0.062000000
