161
-3062.79971
C     0.565000000    -0.544000000    -1.207000000
H     0.938000000    -1.068000000    -2.083000000
C     1.243000000    -0.430000000    -0.024000000
H     2.238000000    -0.854000000     0.082000000
C     0.649000000     0.141000000     1.031000000
C     1.397000000     0.213000000     2.307000000
H     1.206000000     1.127000000     2.872000000
H     1.062000000    -0.647000000     2.891000000
H     2.467000000     0.198000000     2.088000000
C    -0.632000000     0.639000000     0.943000000
H    -1.178000000     1.211000000     1.689000000
C    -1.404000000     0.506000000    -0.272000000
H    -2.439000000     0.827000000    -0.187000000
C    -0.797000000    -0.134000000    -1.304000000
C    -1.534000000    -0.352000000    -2.579000000
O    -2.765000000    -0.472000000    -2.586000000
O    -1.019000000    -0.364000000    -3.661000000
O     2.964000000    -3.653000000     2.887000000
H     2.889000000    -4.170000000     2.085000000
H     2.059000000    -3.515000000     3.168000000
O     4.929000000    -0.060000000    -0.895000000
H     4.984000000    -0.769000000    -0.254000000
H     5.215000000     0.718000000    -0.417000000
O     1.995000000     2.410000000    -1.805000000
H     1.519000000     2.005000000    -2.531000000
H     1.316000000     2.837000000    -1.283000000
O    -3.576000000    -2.290000000    -0.836000000
H    -3.396000000    -1.820000000    -1.650000000
H    -2.911000000    -2.978000000    -0.805000000
O     0.963000000     1.408000000    -4.012000000
H     1.050000000     1.494000000    -4.961000000
H     0.332000000     0.699000000    -3.892000000
O    -1.380000000    -3.962000000    -0.123000000
H    -1.640000000    -4.708000000     0.417000000
H    -1.221000000    -3.256000000     0.503000000
O    -6.776000000     4.095000000     0.657000000
H    -6.201000000     3.393000000     0.352000000
H    -7.484000000     3.642000000     1.116000000
O    -0.453000000     3.597000000    -0.528000000
H    -0.618000000     2.679000000    -0.312000000
H    -0.266000000     4.011000000     0.314000000
O    -2.775000000     3.554000000    -3.993000000
H    -2.666000000     3.445000000    -3.048000000
H    -3.571000000     4.077000000    -4.083000000
O     0.798000000     0.931000000     7.236000000
H     1.560000000     1.178000000     6.712000000
H     0.823000000    -0.025000000     7.258000000
O     2.655000000     1.878000000     5.614000000
H     2.546000000     2.812000000     5.793000000
H     3.594000000     1.723000000     5.717000000
O    -1.622000000    -2.183000000     2.225000000
H    -2.303000000    -1.938000000     2.851000000
H    -1.357000000    -1.356000000     1.822000000
O    -3.115000000    -1.969000000     4.803000000
H    -2.488000000    -1.354000000     5.182000000
H    -2.822000000    -2.828000000     5.108000000
O     4.957000000    -1.543000000     1.567000000
H     5.109000000    -0.742000000     2.070000000
H     4.112000000    -1.865000000     1.880000000
O     4.548000000    -3.794000000    -0.909000000
H     5.401000000    -3.650000000    -0.498000000
H     4.173000000    -4.532000000    -0.429000000
O     0.419000000     4.611000000     1.935000000
H    -0.020000000     5.170000000     2.576000000
H     1.107000000     4.170000000     2.433000000
O    -3.166000000     3.822000000    -1.204000000
H    -3.577000000     4.683000000    -1.121000000
H    -2.244000000     3.976000000    -0.998000000
O     4.065000000    -3.344000000     5.332000000
H     3.673000000    -3.494000000     4.472000000
H     3.465000000    -2.739000000     5.767000000
O     3.100000000    -2.996000000    -3.205000000
H     3.480000000    -3.401000000    -2.426000000
H     3.143000000    -2.056000000    -3.031000000
O     4.037000000    -0.937000000     7.061000000
H     3.288000000    -1.013000000     6.470000000
H     4.543000000    -0.202000000     6.713000000
O    -5.695000000    -1.095000000     0.326000000
H    -4.920000000    -1.531000000    -0.027000000
H    -5.672000000    -1.286000000     1.264000000
O     5.797000000     1.114000000     2.477000000
H     5.587000000     1.866000000     1.924000000
H     6.697000000     0.887000000     2.242000000
O     1.426000000    -1.885000000     6.183000000
H     1.178000000    -2.328000000     5.372000000
H     0.940000000    -2.347000000     6.867000000
O     4.000000000    -0.640000000    -5.498000000
H     3.787000000    -0.495000000    -4.576000000
H     3.151000000    -0.660000000    -5.939000000
O    -1.012000000     2.720000000     4.041000000
H    -1.879000000     2.474000000     3.719000000
H    -0.873000000     3.605000000     3.704000000
O    -4.876000000     1.196000000    -2.638000000
H    -4.165000000     0.629000000    -2.937000000
H    -4.435000000     1.904000000    -2.167000000
O     0.859000000    -0.941000000    -6.001000000
H     0.259000000    -0.886000000    -5.258000000
H     0.741000000    -1.828000000    -6.340000000
O     5.203000000     1.059000000     5.219000000
H     6.012000000     1.570000000     5.201000000
H     4.950000000     0.978000000     4.299000000
O    -7.403000000     0.688000000    -3.193000000
H    -7.736000000     1.565000000    -3.002000000
H    -6.535000000     0.669000000    -2.790000000
O     3.147000000    -0.082000000    -3.073000000
H     2.448000000     0.517000000    -3.333000000
H     3.640000000     0.399000000    -2.408000000
O     0.490000000    -3.149000000     3.806000000
H    -0.245000000    -2.672000000     3.420000000
H     0.196000000    -4.059000000     3.838000000
O    -1.947000000     1.503000000    -7.710000000
H    -2.444000000     2.246000000    -8.051000000
H    -2.263000000     1.395000000    -6.813000000
O     2.599000000     3.335000000     2.969000000
H     3.298000000     3.965000000     3.144000000
H     2.615000000     2.744000000     3.722000000
O    -5.311000000     1.782000000     0.968000000
H    -4.703000000     1.664000000     1.698000000
H    -5.620000000     0.898000000     0.769000000
O    -3.469000000    -2.290000000    -4.820000000
H    -2.896000000    -2.735000000    -5.444000000
H    -2.902000000    -1.654000000    -4.385000000
O    -1.888000000     3.448000000     6.495000000
H    -1.365000000     3.340000000     5.701000000
H    -2.383000000     2.632000000     6.569000000
O    -3.628000000     1.670000000     3.663000000
H    -3.881000000     2.590000000     3.736000000
H    -4.277000000     1.201000000     4.187000000
O    -2.814000000     1.018000000    -5.295000000
H    -2.312000000     0.440000000    -4.719000000
H    -2.957000000     1.809000000    -4.775000000
O    -1.521000000    -3.013000000    -7.001000000
H    -1.429000000    -2.966000000    -7.952000000
H    -1.027000000    -3.794000000    -6.750000000
O    -6.042000000    -4.215000000    -1.187000000
H    -5.144000000    -3.888000000    -1.131000000
H    -6.214000000    -4.281000000    -2.127000000
O     0.852000000    -4.421000000    -2.182000000
H     1.461000000    -3.941000000    -2.743000000
H     0.189000000    -3.775000000    -1.939000000
O    -1.169000000     0.267000000     5.505000000
H    -1.059000000     0.852000000     4.755000000
H    -0.698000000     0.700000000     6.217000000
O     2.073000000    -4.625000000    -5.514000000
H     2.509000000    -4.055000000    -4.880000000
H     2.782000000    -5.138000000    -5.902000000
O     1.083000000     1.574000000    -7.139000000
H     0.234000000     1.833000000    -7.499000000
H     0.998000000     0.634000000    -6.979000000
O    -5.527000000    -3.963000000    -4.419000000
H    -4.594000000    -3.793000000    -4.549000000
H    -5.743000000    -4.627000000    -5.073000000
O     4.001000000     2.456000000     0.422000000
H     3.348000000     2.263000000    -0.251000000
H     3.489000000     2.769000000     1.168000000
O     2.090000000    -5.346000000     0.533000000
H     1.515000000    -6.110000000     0.548000000
H     1.554000000    -4.649000000     0.155000000
O    -5.176000000    -0.725000000    -6.789000000
H    -5.654000000    -1.316000000    -6.207000000
H    -4.620000000    -0.210000000    -6.204000000
