161
-3072.57405
C     0.057000000    -1.090000000    -0.960000000
H     0.281000000    -1.905000000    -1.644000000
C     1.146000000    -0.319000000    -0.611000000
H     2.116000000    -0.398000000    -1.096000000
C     0.987000000     0.636000000     0.436000000
C     2.203000000     1.391000000     0.879000000
H     2.049000000     1.678000000     1.922000000
H     3.035000000     0.684000000     0.855000000
H     2.367000000     2.325000000     0.339000000
C    -0.302000000     0.894000000     0.965000000
H    -0.450000000     1.653000000     1.730000000
C    -1.470000000     0.212000000     0.477000000
H    -2.508000000     0.501000000     0.619000000
C    -1.238000000    -0.850000000    -0.445000000
C    -2.448000000    -1.643000000    -0.955000000
O    -3.585000000    -1.174000000    -0.813000000
O    -2.233000000    -2.591000000    -1.702000000
O     2.500000000     5.215000000    -2.536000000
H     2.677000000     5.243000000    -3.476000000
H     3.355000000     5.060000000    -2.135000000
O     3.305000000     0.936000000     4.642000000
H     3.557000000     1.363000000     5.461000000
H     3.550000000     1.561000000     3.960000000
O    -7.792000000     0.730000000    -1.165000000
H    -6.835000000     0.740000000    -1.186000000
H    -8.053000000     1.362000000    -1.835000000
O     2.332000000    -2.348000000    -5.493000000
H     1.472000000    -2.636000000    -5.188000000
H     2.907000000    -2.467000000    -4.737000000
O    -1.180000000    -6.295000000    -4.691000000
H    -1.624000000    -5.464000000    -4.522000000
H    -1.737000000    -6.740000000    -5.329000000
O    -1.836000000    -0.294000000     4.440000000
H    -2.675000000     0.092000000     4.189000000
H    -1.209000000     0.424000000     4.360000000
O     1.925000000     5.210000000     0.345000000
H     2.057000000     4.978000000    -0.574000000
H     1.005000000     5.472000000     0.395000000
O     4.287000000    -3.527000000     2.047000000
H     3.699000000    -3.108000000     2.675000000
H     3.799000000    -4.289000000     1.733000000
O    -3.558000000     1.786000000    -3.657000000
H    -3.186000000     0.930000000    -3.869000000
H    -2.888000000     2.412000000    -3.931000000
O    -5.047000000     1.243000000    -1.134000000
H    -4.551000000     1.715000000    -1.802000000
H    -4.577000000     0.416000000    -1.027000000
O    -3.079000000     4.790000000     1.538000000
H    -2.837000000     4.137000000     0.882000000
H    -3.882000000     5.185000000     1.197000000
O     2.909000000    -2.143000000     4.115000000
H     3.201000000    -1.232000000     4.154000000
H     1.961000000    -2.086000000     4.001000000
O     3.881000000    -2.952000000    -3.344000000
H     4.184000000    -2.579000000    -2.515000000
H     3.269000000    -3.641000000    -3.087000000
O    -5.632000000     2.281000000     1.309000000
H    -5.430000000     1.957000000     0.431000000
H    -4.961000000     1.890000000     1.869000000
O    -3.532000000    -3.837000000     2.703000000
H    -4.199000000    -3.170000000     2.537000000
H    -3.329000000    -3.747000000     3.634000000
O     6.859000000    -0.312000000    -0.343000000
H     6.608000000     0.610000000    -0.277000000
H     7.347000000    -0.485000000     0.462000000
O     0.010000000    -4.342000000    -1.502000000
H    -0.646000000    -3.646000000    -1.458000000
H    -0.490000000    -5.151000000    -1.395000000
O    -3.642000000    -5.619000000     0.601000000
H    -4.511000000    -5.682000000     0.206000000
H    -3.736000000    -4.954000000     1.283000000
O    -6.926000000    -3.575000000     1.119000000
H    -7.633000000    -4.191000000     0.926000000
H    -6.415000000    -3.537000000     0.311000000
O     0.148000000     3.614000000    -4.404000000
H     0.169000000     2.827000000    -3.858000000
H     1.056000000     3.738000000    -4.679000000
O    -0.169000000     5.257000000     4.492000000
H    -0.912000000     5.137000000     3.901000000
H    -0.566000000     5.477000000     5.334000000
O    -2.648000000     3.940000000    -1.426000000
H    -3.083000000     4.098000000    -2.264000000
H    -1.905000000     3.376000000    -1.644000000
O     4.194000000     6.810000000     1.831000000
H     3.677000000     6.351000000     1.170000000
H     4.639000000     7.506000000     1.347000000
O     0.766000000     0.876000000    -3.980000000
H     0.458000000     0.480000000    -4.795000000
H     1.694000000     1.053000000    -4.135000000
O    -3.416000000     2.176000000     5.773000000
H    -3.049000000     2.829000000     5.177000000
H    -4.286000000     1.991000000     5.419000000
O    -5.546000000    -2.977000000    -1.078000000
H    -6.109000000    -2.722000000    -1.809000000
H    -4.771000000    -2.423000000    -1.168000000
O     0.459000000     1.254000000     4.864000000
H     1.101000000     1.559000000     5.505000000
H     0.984000000     0.943000000     4.127000000
O     2.563000000    -4.709000000    -1.265000000
H     1.658000000    -4.550000000    -1.533000000
H     2.498000000    -4.968000000    -0.346000000
O    -1.725000000    -6.584000000    -0.873000000
H    -2.184000000    -6.869000000    -1.664000000
H    -2.406000000    -6.183000000    -0.333000000
O     5.054000000     4.443000000    -1.523000000
H     5.130000000     3.854000000    -2.275000000
H     5.187000000     3.878000000    -0.762000000
O     2.165000000     4.953000000     2.980000000
H     1.863000000     4.901000000     2.073000000
H     1.361000000     4.993000000     3.498000000
O    -2.746000000    -4.206000000    -3.821000000
H    -2.648000000    -3.531000000    -3.149000000
H    -3.639000000    -4.531000000    -3.706000000
O     5.766000000    -4.324000000    -0.666000000
H     5.030000000    -3.886000000    -0.238000000
H     5.413000000    -5.170000000    -0.942000000
O    -0.497000000     5.672000000     1.051000000
H    -1.269000000     5.111000000     1.137000000
H    -0.853000000     6.550000000     0.918000000
O    -5.339000000    -5.727000000    -2.780000000
H    -5.491000000    -5.086000000    -2.086000000
H    -4.947000000    -6.476000000    -2.332000000
O     5.838000000     2.290000000     0.648000000
H     5.014000000     2.365000000     1.130000000
H     6.512000000     2.270000000     1.327000000
O    -4.258000000     0.613000000     3.204000000
H    -4.921000000     0.533000000     3.890000000
H    -4.414000000    -0.137000000     2.631000000
O    -4.708000000    -1.633000000     1.735000000
H    -4.282000000    -1.620000000     0.878000000
H    -5.578000000    -1.994000000     1.565000000
O     4.212000000     3.048000000     2.942000000
H     3.580000000     3.741000000     2.752000000
H     5.036000000     3.512000000     3.096000000
O    -2.110000000    -1.155000000    -4.348000000
H    -1.219000000    -1.432000000    -4.139000000
H    -2.612000000    -1.341000000    -3.554000000
O    -3.107000000     4.487000000     4.213000000
H    -3.014000000     4.579000000     3.265000000
H    -3.932000000     4.927000000     4.418000000
O     0.243000000    -3.685000000    -4.256000000
H    -0.018000000    -3.871000000    -3.354000000
H     0.116000000    -4.514000000    -4.718000000
O    -6.879000000    -2.001000000    -3.215000000
H    -6.816000000    -1.763000000    -4.140000000
H    -7.756000000    -1.716000000    -2.955000000
O     4.631000000    -1.517000000    -0.843000000
H     5.475000000    -1.390000000    -0.411000000
H     4.206000000    -0.660000000    -0.796000000
O    -0.594000000     2.193000000    -1.915000000
H    -0.755000000     1.727000000    -1.095000000
H    -0.187000000     1.542000000    -2.486000000
O     4.812000000     0.346000000    -4.968000000
H     4.324000000    -0.439000000    -4.719000000
H     5.049000000     0.200000000    -5.884000000
O     0.078000000    -2.269000000     3.439000000
H    -0.256000000    -2.719000000     2.663000000
H    -0.676000000    -1.785000000     3.778000000
O    -2.120000000    -3.375000000    -6.646000000
H    -3.067000000    -3.372000000    -6.787000000
H    -2.017000000    -3.584000000    -5.717000000
