161
-3015.57202
C    -0.385000000     0.061000000    -1.459000000
H    -0.516000000     0.177000000    -2.532000000
C     0.952000000     0.153000000    -0.930000000
H     1.763000000     0.427000000    -1.601000000
C     1.177000000     0.006000000     0.433000000
C     2.540000000     0.153000000     0.906000000
H     3.325000000    -0.351000000     0.337000000
H     2.635000000     1.236000000     0.801000000
H     2.536000000    -0.186000000     1.944000000
C     0.136000000    -0.194000000     1.280000000
H     0.319000000    -0.204000000     2.351000000
C    -1.146000000    -0.421000000     0.765000000
H    -2.015000000    -0.433000000     1.418000000
C    -1.425000000    -0.160000000    -0.560000000
C    -2.908000000    -0.076000000    -0.919000000
O    -3.810000000    -0.302000000    -0.179000000
O    -3.180000000     0.119000000    -2.062000000
O     1.230000000    -2.754000000     4.122000000
H     2.162000000    -2.539000000     4.148000000
H     0.966000000    -2.566000000     3.222000000
O    -2.845000000     1.761000000     4.450000000
H    -3.254000000     2.605000000     4.643000000
H    -3.341000000     1.421000000     3.705000000
O    -2.346000000    -1.864000000    -3.684000000
H    -2.577000000    -1.225000000    -3.010000000
H    -1.999000000    -2.612000000    -3.197000000
O    -7.574000000    -2.616000000    -1.813000000
H    -7.156000000    -2.989000000    -2.589000000
H    -7.697000000    -1.692000000    -2.028000000
O     5.646000000    -2.074000000    -0.657000000
H     5.493000000    -2.910000000    -0.217000000
H     5.744000000    -2.304000000    -1.581000000
O    -5.660000000     2.280000000    -3.175000000
H    -5.528000000     1.785000000    -2.366000000
H    -4.830000000     2.196000000    -3.645000000
O    -6.254000000     0.926000000    -0.483000000
H    -6.711000000     0.410000000     0.182000000
H    -5.389000000     0.521000000    -0.548000000
O    -3.939000000     2.608000000    -6.529000000
H    -4.862000000     2.354000000    -6.535000000
H    -3.625000000     2.346000000    -5.663000000
O    -5.046000000     3.735000000     1.467000000
H    -5.794000000     3.577000000     0.891000000
H    -4.885000000     2.890000000     1.888000000
O     0.611000000    -1.450000000     7.292000000
H     0.631000000    -0.511000000     7.111000000
H     0.702000000    -1.862000000     6.433000000
O    -0.007000000    -2.928000000     1.575000000
H    -0.001000000    -2.001000000     1.339000000
H    -0.637000000    -3.325000000     0.974000000
O     2.516000000     0.584000000    -5.600000000
H     3.024000000     0.459000000    -4.798000000
H     2.869000000     1.387000000    -5.984000000
O    -6.777000000     3.661000000    -0.722000000
H    -7.011000000     3.569000000    -1.645000000
H    -6.791000000     2.766000000    -0.381000000
O     1.481000000    -5.351000000     1.003000000
H     1.387000000    -4.408000000     1.143000000
H     0.784000000    -5.742000000     1.530000000
O    -6.911000000    -0.813000000    -5.090000000
H    -6.153000000    -1.224000000    -4.675000000
H    -7.517000000    -0.645000000    -4.368000000
O     5.909000000     3.173000000    -2.668000000
H     6.735000000     3.552000000    -2.968000000
H     6.169000000     2.410000000    -2.151000000
O    -2.932000000    -3.295000000     4.047000000
H    -3.086000000    -2.965000000     3.162000000
H    -3.027000000    -2.525000000     4.608000000
O    -7.463000000    -0.905000000     1.144000000
H    -7.083000000    -0.845000000     2.021000000
H    -7.206000000    -1.772000000     0.831000000
O     1.930000000     3.853000000    -4.194000000
H     2.492000000     4.288000000    -4.836000000
H     1.683000000     3.028000000    -4.612000000
O    -0.038000000     4.611000000     3.604000000
H    -0.664000000     4.173000000     3.028000000
H    -0.334000000     5.521000000     3.632000000
O     2.048000000     3.613000000    -1.316000000
H     2.001000000     2.657000000    -1.298000000
H     2.032000000     3.836000000    -2.246000000
O     7.401000000    -2.269000000     3.629000000
H     6.862000000    -2.103000000     2.855000000
H     7.274000000    -1.497000000     4.180000000
O     2.924000000    -3.372000000    -3.881000000
H     3.329000000    -3.905000000    -4.565000000
H     2.001000000    -3.327000000    -4.128000000
O     5.529000000    -0.834000000     2.001000000
H     5.944000000    -0.067000000     1.607000000
H     5.022000000    -1.225000000     1.290000000
O    -0.615000000     0.058000000    -5.585000000
H     0.305000000    -0.159000000    -5.435000000
H    -0.591000000     0.886000000    -6.064000000
O    -5.482000000    -3.970000000    -0.631000000
H    -5.465000000    -3.441000000    -1.429000000
H    -6.405000000    -3.991000000    -0.378000000
O    -0.886000000    -4.073000000     5.569000000
H    -1.646000000    -3.680000000     5.140000000
H    -0.137000000    -3.773000000     5.053000000
O     2.918000000     2.988000000     3.441000000
H     2.097000000     2.964000000     2.950000000
H     2.960000000     3.877000000     3.793000000
O     5.024000000    -4.340000000     0.526000000
H     4.635000000    -4.755000000     1.296000000
H     5.608000000    -5.006000000     0.165000000
O     5.142000000     3.244000000     1.800000000
H     4.410000000     3.247000000     2.417000000
H     5.879000000     2.899000000     2.304000000
O    -5.168000000    -1.808000000    -3.288000000
H    -4.898000000    -1.361000000    -2.486000000
H    -4.347000000    -2.035000000    -3.724000000
O     5.766000000    -2.834000000    -3.717000000
H     4.856000000    -2.664000000    -3.474000000
H     5.871000000    -2.405000000    -4.567000000
O    -2.358000000    -4.243000000    -2.377000000
H    -3.134000000    -4.619000000    -2.793000000
H    -1.755000000    -4.980000000    -2.284000000
O    -4.597000000     1.161000000     2.348000000
H    -4.353000000     0.799000000     1.496000000
H    -5.376000000     0.667000000     2.604000000
O     3.815000000    -1.850000000     4.118000000
H     4.419000000    -1.628000000     3.410000000
H     4.374000000    -2.203000000     4.809000000
O    -3.785000000    -2.701000000     1.234000000
H    -3.889000000    -1.895000000     0.728000000
H    -4.348000000    -3.336000000     0.791000000
O     0.016000000     5.178000000     0.497000000
H     0.528000000     5.967000000     0.669000000
H     0.601000000     4.619000000    -0.014000000
O    -3.141000000     1.592000000    -4.215000000
H    -2.218000000     1.503000000    -4.455000000
H    -3.260000000     0.977000000    -3.491000000
O     3.363000000     5.023000000     0.530000000
H     2.916000000     4.482000000    -0.120000000
H     4.089000000     4.480000000     0.836000000
O     3.008000000     1.043000000     5.402000000
H     3.123000000     1.638000000     4.662000000
H     3.657000000     0.354000000     5.258000000
O    -0.448000000     5.260000000    -4.004000000
H     0.428000000     4.928000000    -4.202000000
H    -0.883000000     4.535000000    -3.556000000
O     3.548000000     1.349000000    -3.137000000
H     3.939000000     1.311000000    -2.265000000
H     3.942000000     2.121000000    -3.543000000
O    -2.509000000    -1.343000000    -6.737000000
H    -1.665000000    -1.015000000    -6.426000000
H    -3.126000000    -0.637000000    -6.544000000
O     5.779000000     0.358000000    -1.539000000
H     5.584000000    -0.345000000    -0.918000000
H     6.562000000     0.058000000    -2.001000000
O    -2.232000000     4.379000000     2.015000000
H    -1.720000000     4.681000000     1.264000000
H    -3.095000000     4.179000000     1.653000000
O    -2.248000000     3.830000000    -2.195000000
H    -2.916000000     4.321000000    -1.716000000
H    -2.739000000     3.159000000    -2.669000000
O    -3.129000000    -1.102000000     5.468000000
H    -3.315000000    -0.196000000     5.221000000
H    -3.701000000    -1.267000000     6.218000000
O     0.172000000    -3.153000000    -4.889000000
H    -0.238000000    -3.981000000    -5.142000000
H    -0.563000000    -2.574000000    -4.688000000
