161
-2989.60664
C    -0.184000000     0.836000000    -1.241000000
H    -0.090000000     1.471000000    -2.119000000
C     1.024000000     0.280000000    -0.796000000
H     1.853000000     0.543000000    -1.448000000
C     1.124000000    -0.484000000     0.408000000
C     2.333000000    -1.049000000     0.921000000
H     2.332000000    -0.577000000     1.906000000
H     2.274000000    -2.112000000     1.162000000
H     3.180000000    -0.719000000     0.316000000
C    -0.028000000    -0.617000000     1.140000000
H     0.004000000    -0.939000000     2.178000000
C    -1.277000000    -0.125000000     0.671000000
H    -2.216000000    -0.425000000     1.128000000
C    -1.309000000     0.500000000    -0.587000000
C    -2.641000000     0.929000000    -1.108000000
O    -3.625000000     0.797000000    -0.486000000
O    -2.755000000     1.686000000    -2.050000000
O     2.731000000    -1.975000000    -2.474000000
H     2.968000000    -2.870000000    -2.230000000
H     3.411000000    -1.430000000    -2.078000000
O    -7.932000000    -1.790000000    -1.924000000
H    -8.760000000    -1.335000000    -1.775000000
H    -7.330000000    -1.105000000    -2.214000000
O     3.127000000    -6.514000000     0.331000000
H     3.808000000    -6.811000000    -0.272000000
H     2.762000000    -7.321000000     0.697000000
O     0.150000000    -2.984000000    -3.558000000
H    -0.497000000    -3.418000000    -3.002000000
H     0.905000000    -2.847000000    -2.986000000
O    -5.856000000     1.310000000     0.658000000
H    -5.057000000     1.032000000     0.211000000
H    -6.262000000     0.495000000     0.952000000
O     5.972000000    -3.075000000    -2.508000000
H     5.205000000    -3.634000000    -2.629000000
H     6.417000000    -3.092000000    -3.356000000
O    -4.740000000     3.434000000    -1.461000000
H    -4.050000000     2.799000000    -1.656000000
H    -5.432000000     2.916000000    -1.051000000
O    -2.931000000     3.826000000    -6.398000000
H    -2.578000000     3.572000000    -7.250000000
H    -3.641000000     3.205000000    -6.238000000
O    -1.414000000    -0.456000000     4.261000000
H    -1.398000000     0.219000000     3.582000000
H    -1.878000000    -1.190000000     3.858000000
O     0.079000000    -3.208000000    -0.851000000
H     0.439000000    -2.584000000    -0.221000000
H    -0.748000000    -2.817000000    -1.131000000
O     1.479000000     0.522000000     4.824000000
H     2.415000000     0.327000000     4.852000000
H     1.131000000     0.144000000     5.631000000
O    -8.334000000     1.322000000    -0.723000000
H    -8.484000000     1.209000000     0.215000000
H    -7.386000000     1.239000000    -0.826000000
O    -1.396000000    -5.108000000     2.513000000
H    -1.266000000    -5.669000000     3.278000000
H    -0.644000000    -5.292000000     1.950000000
O    -7.537000000    -0.578000000     1.485000000
H    -7.359000000    -1.437000000     1.868000000
H    -8.468000000    -0.431000000     1.647000000
O    -3.360000000    -2.278000000     3.309000000
H    -2.725000000    -2.973000000     3.133000000
H    -3.701000000    -2.042000000     2.446000000
O    -3.621000000    -1.680000000     6.169000000
H    -3.294000000    -2.577000000     6.233000000
H    -3.675000000    -1.511000000     5.228000000
O     3.846000000     3.977000000     0.339000000
H     3.905000000     3.567000000    -0.524000000
H     4.103000000     3.287000000     0.951000000
O    -1.642000000     2.346000000     3.457000000
H    -2.160000000     2.409000000     2.654000000
H    -2.263000000     2.042000000     4.119000000
O     2.359000000     3.052000000    -3.884000000
H     3.043000000     3.078000000    -3.215000000
H     2.646000000     3.682000000    -4.545000000
O     2.481000000    -0.710000000    -4.682000000
H     2.623000000    -1.135000000    -3.836000000
H     3.359000000    -0.607000000    -5.049000000
O    -0.402000000    -1.580000000     6.709000000
H    -1.041000000    -1.349000000     7.384000000
H    -0.694000000    -1.106000000     5.930000000
O     4.165000000    -0.324000000     4.593000000
H     4.710000000    -1.101000000     4.719000000
H     4.786000000     0.404000000     4.571000000
O     0.884000000     1.395000000    -5.329000000
H     1.385000000     0.662000000    -4.971000000
H     1.202000000     2.159000000    -4.847000000
O    -5.951000000    -0.492000000     3.957000000
H    -5.274000000    -0.828000000     3.370000000
H    -6.731000000    -1.002000000     3.739000000
O    -6.233000000    -2.719000000    -0.202000000
H    -6.830000000    -2.486000000    -0.913000000
H    -6.784000000    -3.174000000     0.435000000
O     5.366000000    -0.358000000    -3.159000000
H     5.728000000    -1.244000000    -3.141000000
H     5.632000000    -0.008000000    -4.009000000
O    -5.035000000     5.560000000     0.250000000
H    -5.794000000     5.563000000     0.833000000
H    -4.833000000     4.633000000     0.125000000
O     3.602000000    -4.507000000    -1.688000000
H     3.307000000    -4.943000000    -0.888000000
H     3.454000000    -5.150000000    -2.380000000
O     6.292000000    -4.847000000     1.519000000
H     5.359000000    -4.761000000     1.718000000
H     6.548000000    -5.674000000     1.927000000
O     4.508000000     1.829000000     1.679000000
H     4.827000000     0.944000000     1.501000000
H     4.785000000     2.007000000     2.578000000
O    -5.971000000     0.237000000    -2.241000000
H    -5.307000000     0.579000000    -1.642000000
H    -5.472000000    -0.235000000    -2.908000000
O     4.273000000     2.934000000    -2.145000000
H     5.158000000     3.159000000    -2.431000000
H     4.372000000     2.088000000    -1.708000000
O    -2.587000000    -2.253000000    -1.482000000
H    -3.138000000    -2.153000000    -2.258000000
H    -3.207000000    -2.367000000    -0.762000000
O    -4.146000000    -1.581000000     0.875000000
H    -3.991000000    -0.773000000     0.385000000
H    -5.000000000    -1.886000000     0.568000000
O     0.513000000     3.779000000     0.121000000
H     0.219000000     3.124000000    -0.513000000
H     1.301000000     3.399000000     0.509000000
O     6.449000000     0.999000000    -0.612000000
H     6.184000000     0.209000000    -1.082000000
H     7.387000000     0.884000000    -0.460000000
O    -0.017000000    -5.639000000     0.372000000
H     0.087000000    -4.815000000    -0.104000000
H    -0.836000000    -6.006000000     0.040000000
O    -1.649000000     0.952000000    -4.461000000
H    -0.804000000     1.228000000    -4.816000000
H    -1.799000000     1.536000000    -3.718000000
O     1.985000000     2.495000000     2.967000000
H     1.578000000     1.708000000     3.328000000
H     2.765000000     2.176000000     2.513000000
O    -5.898000000     5.541000000    -3.393000000
H    -5.547000000     4.827000000    -2.862000000
H    -5.185000000     6.178000000    -3.439000000
O    -1.206000000     5.796000000    -0.674000000
H    -0.589000000     5.168000000    -0.300000000
H    -1.725000000     5.283000000    -1.293000000
O     1.723000000    -4.451000000     4.010000000
H     1.679000000    -5.403000000     3.915000000
H     0.815000000    -4.183000000     4.151000000
O    -3.845000000    -0.618000000    -4.255000000
H    -3.805000000    -1.104000000    -5.079000000
H    -3.196000000     0.079000000    -4.356000000
O     3.846000000    -4.841000000     2.277000000
H     3.071000000    -4.448000000     2.678000000
H     3.501000000    -5.379000000     1.565000000
O    -3.261000000     2.610000000     1.469000000
H    -4.161000000     2.893000000     1.630000000
H    -3.317000000     2.074000000     0.678000000
O     0.441000000     5.470000000    -2.890000000
H    -0.398000000     5.045000000    -2.713000000
H     0.758000000     5.052000000    -3.690000000
O    -2.178000000     4.028000000    -3.187000000
H    -3.024000000     4.405000000    -3.432000000
H    -2.382000000     3.129000000    -2.930000000
O    -1.106000000    -1.443000000    -5.451000000
H    -0.569000000    -2.068000000    -4.964000000
H    -1.220000000    -0.706000000    -4.851000000
