161
-3050.98028
C    -0.132000000     1.159000000    -0.924000000
H    -0.069000000     2.062000000    -1.526000000
C     1.050000000     0.751000000    -0.269000000
H     1.991000000     1.258000000    -0.466000000
C     1.047000000    -0.393000000     0.568000000
C     2.274000000    -0.814000000     1.251000000
H     2.788000000     0.057000000     1.663000000
H     2.131000000    -1.534000000     2.059000000
H     2.921000000    -1.363000000     0.564000000
C    -0.134000000    -1.050000000     0.769000000
H    -0.146000000    -1.925000000     1.413000000
C    -1.350000000    -0.620000000     0.162000000
H    -2.239000000    -1.220000000     0.341000000
C    -1.379000000     0.501000000    -0.686000000
C    -2.628000000     0.950000000    -1.404000000
O    -3.653000000     0.435000000    -1.192000000
O    -2.473000000     1.748000000    -2.322000000
O     3.469000000    -1.952000000    -1.933000000
H     2.767000000    -1.644000000    -2.506000000
H     3.566000000    -1.259000000    -1.279000000
O     4.312000000    -4.721000000    -1.964000000
H     5.238000000    -4.566000000    -2.151000000
H     3.890000000    -3.878000000    -2.129000000
O     4.279000000    -4.540000000     5.240000000
H     4.689000000    -3.965000000     5.886000000
H     3.341000000    -4.372000000     5.333000000
O     3.105000000    -0.674000000    -4.977000000
H     2.515000000    -0.460000000    -4.254000000
H     3.142000000    -1.630000000    -4.981000000
O     4.521000000    -3.656000000     1.380000000
H     4.473000000    -4.568000000     1.094000000
H     3.633000000    -3.320000000     1.259000000
O    -7.836000000     1.803000000    -3.963000000
H    -7.278000000     1.747000000    -4.739000000
H    -7.313000000     1.412000000    -3.264000000
O    -4.476000000     1.891000000     1.334000000
H    -4.326000000     1.523000000     0.463000000
H    -5.428000000     1.936000000     1.414000000
O     6.253000000    -0.967000000    -0.792000000
H     6.891000000    -1.487000000    -0.303000000
H     6.222000000    -1.376000000    -1.656000000
O    -4.640000000     2.800000000    -3.235000000
H    -3.893000000     2.353000000    -2.838000000
H    -5.402000000     2.456000000    -2.769000000
O     1.189000000     6.151000000    -3.962000000
H     1.514000000     5.727000000    -3.168000000
H     1.949000000     6.185000000    -4.543000000
O    -3.564000000     5.529000000    -3.158000000
H    -3.566000000     5.777000000    -2.233000000
H    -3.990000000     4.672000000    -3.178000000
O     5.791000000     2.058000000     4.162000000
H     5.920000000     1.774000000     3.257000000
H     5.071000000     1.514000000     4.483000000
O    -2.829000000     0.334000000     3.493000000
H    -3.373000000     1.062000000     3.191000000
H    -3.258000000    -0.447000000     3.143000000
O     1.199000000    -4.016000000     0.052000000
H     1.005000000    -3.219000000    -0.442000000
H     0.993000000    -3.790000000     0.960000000
O    -1.860000000    -1.914000000    -5.856000000
H    -2.351000000    -1.411000000    -5.206000000
H    -1.447000000    -1.251000000    -6.410000000
O    -1.795000000    -4.582000000     2.937000000
H    -2.381000000    -4.614000000     2.181000000
H    -1.878000000    -5.446000000     3.341000000
O     5.824000000     0.421000000     1.916000000
H     5.382000000    -0.292000000     2.376000000
H     5.959000000     0.088000000     1.029000000
O    -4.333000000    -1.515000000     2.166000000
H    -5.219000000    -1.317000000     2.469000000
H    -4.427000000    -1.647000000     1.222000000
O    -4.661000000    -2.526000000    -3.511000000
H    -4.336000000    -1.664000000    -3.769000000
H    -5.495000000    -2.615000000    -3.972000000
O     4.064000000     0.232000000     5.273000000
H     3.569000000    -0.558000000     5.054000000
H     4.755000000    -0.074000000     5.862000000
O    -4.633000000    -3.378000000     4.436000000
H    -3.836000000    -3.905000000     4.487000000
H    -4.729000000    -3.178000000     3.505000000
O     4.186000000     5.467000000    -0.094000000
H     3.619000000     5.368000000    -0.859000000
H     4.141000000     4.620000000     0.349000000
O     3.320000000     3.146000000    -1.790000000
H     3.920000000     2.417000000    -1.634000000
H     3.679000000     3.592000000    -2.557000000
O    -1.092000000     0.498000000    -4.247000000
H    -1.523000000     1.095000000    -3.635000000
H    -0.699000000     1.072000000    -4.904000000
O    -0.285000000    -0.819000000     3.939000000
H    -1.083000000    -0.546000000     3.486000000
H    -0.595000000    -1.374000000     4.655000000
O     1.118000000    -0.465000000    -3.150000000
H     1.154000000     0.098000000    -2.377000000
H     0.260000000    -0.288000000    -3.535000000
O     2.898000000     2.630000000     5.227000000
H     3.031000000     1.695000000     5.073000000
H     2.654000000     2.982000000     4.371000000
O     0.254000000     3.036000000    -5.853000000
H    -0.373000000     3.381000000    -5.217000000
H     0.511000000     3.797000000    -6.373000000
O    -8.333000000    -0.675000000     0.190000000
H    -9.214000000    -0.709000000    -0.182000000
H    -7.760000000    -0.950000000    -0.526000000
O     5.234000000     1.489000000    -1.244000000
H     5.937000000     1.932000000    -1.720000000
H     5.485000000     0.565000000    -1.254000000
O    -3.296000000     4.235000000     0.809000000
H    -3.602000000     3.365000000     1.068000000
H    -2.761000000     4.530000000     1.545000000
O     0.885000000    -3.860000000     2.875000000
H    -0.055000000    -4.042000000     2.875000000
H     1.174000000    -4.095000000     3.757000000
O     5.047000000    -1.881000000     3.293000000
H     4.999000000    -2.515000000     2.577000000
H     4.426000000    -2.207000000     3.944000000
O     2.118000000     3.603000000     2.751000000
H     1.997000000     4.552000000     2.739000000
H     2.973000000     3.465000000     2.343000000
O    -6.194000000     0.300000000    -2.208000000
H    -5.389000000     0.475000000    -1.720000000
H    -6.424000000    -0.599000000    -1.976000000
O     4.540000000     3.011000000     1.478000000
H     5.243000000     2.838000000     2.104000000
H     4.238000000     2.142000000     1.213000000
O    -2.525000000    -3.803000000    -2.487000000
H    -3.333000000    -3.328000000    -2.682000000
H    -2.490000000    -3.833000000    -1.531000000
O    -3.572000000    -4.388000000     1.036000000
H    -3.933000000    -5.111000000     0.524000000
H    -3.788000000    -3.604000000     0.531000000
O    -4.201000000    -2.187000000    -0.686000000
H    -4.047000000    -1.294000000    -0.993000000
H    -4.942000000    -2.495000000    -1.209000000
O    -0.296000000    -6.897000000     1.585000000
H    -0.113000000    -5.965000000     1.465000000
H     0.338000000    -7.339000000     1.021000000
O    -1.114000000     4.678000000    -4.239000000
H    -1.809000000     5.184000000    -3.818000000
H    -0.310000000     5.154000000    -4.030000000
O    -0.103000000     2.425000000     3.751000000
H     0.566000000     2.926000000     3.284000000
H    -0.146000000     1.590000000     3.284000000
O     2.056000000    -1.722000000     4.809000000
H     1.754000000    -2.329000000     5.484000000
H     1.274000000    -1.532000000     4.290000000
O    -3.370000000     3.015000000    -6.636000000
H    -2.715000000     3.129000000    -5.947000000
H    -3.111000000     2.207000000    -7.080000000
O     1.305000000     5.033000000    -1.393000000
H     0.445000000     4.700000000    -1.139000000
H     1.881000000     4.270000000    -1.343000000
O    -1.432000000     4.332000000    -1.293000000
H    -2.062000000     4.303000000    -0.572000000
H    -1.772000000     3.707000000    -1.933000000
O    -3.999000000    -0.117000000    -4.519000000
H    -3.201000000     0.314000000    -4.214000000
H    -4.710000000     0.416000000    -4.162000000
O    -7.045000000    -2.340000000    -1.492000000
H    -7.778000000    -2.716000000    -1.979000000
H    -6.435000000    -3.069000000    -1.377000000
