161
-3046.24790
C     0.081000000     0.426000000    -1.479000000
H     0.180000000     0.592000000    -2.549000000
C     1.123000000    -0.153000000    -0.649000000
H     2.139000000    -0.255000000    -1.021000000
C     0.987000000    -0.418000000     0.721000000
C     2.052000000    -1.041000000     1.610000000
H     1.680000000    -1.222000000     2.620000000
H     2.305000000    -1.996000000     1.142000000
H     2.923000000    -0.384000000     1.643000000
C    -0.274000000    -0.111000000     1.286000000
H    -0.367000000    -0.382000000     2.335000000
C    -1.331000000     0.267000000     0.456000000
H    -2.324000000     0.455000000     0.856000000
C    -1.216000000     0.598000000    -0.932000000
C    -2.355000000     1.020000000    -1.805000000
O    -3.482000000     1.151000000    -1.356000000
O    -2.115000000     1.454000000    -2.880000000
O     5.374000000     0.716000000    -1.556000000
H     4.828000000     0.505000000    -2.313000000
H     5.234000000    -0.012000000    -0.950000000
O     0.662000000    -1.104000000    -5.507000000
H     0.846000000    -0.203000000    -5.240000000
H     0.749000000    -1.094000000    -6.460000000
O     5.716000000    -1.112000000     0.629000000
H     5.406000000    -1.655000000     1.354000000
H     6.268000000    -1.697000000     0.111000000
O     0.388000000    -3.762000000     2.671000000
H     0.835000000    -4.042000000     1.872000000
H     1.091000000    -3.640000000     3.309000000
O    -3.735000000     3.716000000     1.135000000
H    -4.134000000     2.874000000     0.915000000
H    -3.340000000     3.575000000     1.996000000
O    -3.984000000     3.614000000    -2.499000000
H    -3.975000000     2.805000000    -1.987000000
H    -3.417000000     3.430000000    -3.248000000
O     6.252000000     3.436000000     2.242000000
H     5.533000000     2.923000000     2.611000000
H     7.041000000     2.950000000     2.480000000
O     7.036000000     0.689000000     2.569000000
H     6.631000000     0.334000000     1.778000000
H     6.674000000     0.162000000     3.281000000
O     0.370000000     1.764000000     3.873000000
H     0.884000000     0.962000000     3.774000000
H     0.455000000     1.989000000     4.800000000
O     1.695000000    -4.202000000     0.211000000
H     1.012000000    -3.747000000    -0.282000000
H     1.915000000    -4.962000000    -0.329000000
O     1.508000000    -3.594000000    -4.739000000
H     2.075000000    -3.250000000    -4.050000000
H     1.112000000    -2.818000000    -5.135000000
O     5.317000000    -4.405000000    -0.184000000
H     6.244000000    -4.182000000    -0.097000000
H     5.257000000    -5.306000000     0.132000000
O    -5.208000000     0.549000000     0.832000000
H    -6.076000000     0.448000000     0.442000000
H    -4.646000000     0.805000000     0.100000000
O    -2.351000000     5.913000000    -2.292000000
H    -1.871000000     5.429000000    -1.620000000
H    -3.080000000     5.339000000    -2.526000000
O    -1.773000000    -1.601000000     3.995000000
H    -2.212000000    -1.330000000     3.188000000
H    -2.435000000    -2.101000000     4.471000000
O    -1.640000000     2.003000000    -7.491000000
H    -2.319000000     2.044000000    -6.817000000
H    -1.862000000     2.710000000    -8.097000000
O    -2.908000000     0.799000000     5.705000000
H    -2.552000000     0.440000000     4.892000000
H    -2.725000000     1.737000000     5.654000000
O    -4.227000000    -1.622000000     2.295000000
H    -4.472000000    -1.087000000     1.540000000
H    -4.830000000    -1.350000000     2.987000000
O    -7.507000000     3.577000000    -1.706000000
H    -6.880000000     3.413000000    -1.002000000
H    -7.583000000     4.530000000    -1.742000000
O    -2.522000000    -0.507000000    -5.025000000
H    -2.488000000    -0.040000000    -4.189000000
H    -1.623000000    -0.475000000    -5.353000000
O     3.324000000    -0.180000000    -3.238000000
H     2.928000000    -1.035000000    -3.071000000
H     2.589000000     0.379000000    -3.488000000
O     5.080000000    -0.740000000     4.062000000
H     4.843000000    -1.481000000     3.504000000
H     4.250000000    -0.296000000     4.236000000
O     3.204000000     2.218000000     0.703000000
H     2.642000000     2.611000000     0.034000000
H     3.989000000     1.947000000     0.226000000
O     5.773000000     3.442000000    -1.735000000
H     5.199000000     2.701000000    -1.925000000
H     6.451000000     3.080000000    -1.164000000
O    -3.298000000     2.575000000    -5.089000000
H    -2.768000000     2.039000000    -4.499000000
H    -4.174000000     2.194000000    -5.036000000
O     5.102000000     0.364000000    -5.202000000
H     4.477000000     0.236000000    -4.489000000
H     4.848000000    -0.280000000    -5.863000000
O     2.185000000    -2.503000000    -2.491000000
H     1.271000000    -2.588000000    -2.219000000
H     2.676000000    -3.008000000    -1.844000000
O    -0.385000000    -2.826000000    -1.234000000
H    -1.293000000    -3.063000000    -1.049000000
H    -0.343000000    -1.885000000    -1.063000000
O     3.981000000     2.367000000     3.481000000
H     3.609000000     1.531000000     3.763000000
H     3.677000000     2.472000000     2.580000000
O     1.374000000     1.471000000    -4.875000000
H     1.581000000     1.944000000    -5.681000000
H     0.776000000     2.051000000    -4.404000000
O    -2.178000000     5.077000000    -6.592000000
H    -2.423000000     4.213000000    -6.259000000
H    -2.754000000     5.216000000    -7.343000000
O    -1.473000000     4.674000000    -0.141000000
H    -2.351000000     4.364000000     0.084000000
H    -0.891000000     4.196000000     0.450000000
O     0.663000000    -1.238000000     5.213000000
H    -0.022000000    -1.507000000     4.601000000
H     0.971000000    -2.056000000     5.603000000
O    -1.424000000    -5.258000000     1.267000000
H    -2.207000000    -4.750000000     1.058000000
H    -0.926000000    -4.696000000     1.861000000
O     4.514000000    -3.358000000     3.062000000
H     4.064000000    -3.937000000     2.447000000
H     5.402000000    -3.711000000     3.118000000
O    -4.754000000    -0.743000000    -2.275000000
H    -4.181000000     0.005000000    -2.108000000
H    -5.242000000    -0.857000000    -1.460000000
O    -4.179000000    -4.360000000     2.553000000
H    -3.975000000    -4.373000000     3.489000000
H    -4.322000000    -3.436000000     2.352000000
O    -3.035000000    -3.361000000    -0.455000000
H    -3.822000000    -3.759000000    -0.827000000
H    -3.348000000    -2.888000000     0.316000000
O    -2.360000000     2.791000000     3.882000000
H    -2.327000000     3.666000000     4.269000000
H    -1.452000000     2.488000000     3.898000000
O     0.259000000     3.355000000     1.771000000
H     0.685000000     2.810000000     1.108000000
H     0.271000000     2.820000000     2.564000000
O    -4.354000000    -2.545000000    -4.680000000
H    -4.701000000    -2.277000000    -3.829000000
H    -3.724000000    -1.861000000    -4.908000000
O    -0.874000000    -4.806000000     5.179000000
H    -0.564000000    -4.060000000     4.667000000
H    -0.365000000    -4.769000000     5.989000000
O     2.776000000     0.384000000     5.200000000
H     1.964000000    -0.042000000     5.474000000
H     3.072000000     0.858000000     5.977000000
O     3.538000000    -5.388000000    -1.972000000
H     3.986000000    -6.217000000    -2.140000000
H     4.167000000    -4.875000000    -1.465000000
O     2.365000000    -3.891000000     4.547000000
H     2.574000000    -4.758000000     4.894000000
H     3.142000000    -3.639000000     4.048000000
O     1.616000000     3.889000000    -0.956000000
H     1.907000000     4.782000000    -1.144000000
H     0.873000000     3.751000000    -1.545000000
O    -0.127000000     3.491000000    -2.849000000
H    -0.889000000     2.913000000    -2.874000000
H    -0.363000000     4.223000000    -3.419000000
O    -5.564000000     1.034000000    -4.978000000
H    -5.784000000     0.511000000    -4.207000000
H    -6.234000000     0.806000000    -5.622000000
