161
-3077.99233
C    -0.867000000    -0.295000000    -1.179000000
H    -1.456000000    -0.737000000    -1.979000000
C     0.133000000    -1.056000000    -0.699000000
H     0.225000000    -2.053000000    -1.121000000
C     1.065000000    -0.595000000     0.333000000
C     2.118000000    -1.556000000     0.812000000
H     1.593000000    -2.314000000     1.397000000
H     2.469000000    -2.025000000    -0.110000000
H     2.988000000    -1.132000000     1.319000000
C     0.800000000     0.604000000     0.972000000
H     1.467000000     0.991000000     1.739000000
C    -0.409000000     1.335000000     0.611000000
H    -0.647000000     2.270000000     1.112000000
C    -1.224000000     0.883000000    -0.452000000
C    -2.421000000     1.658000000    -0.824000000
O    -2.804000000     2.578000000    -0.095000000
O    -3.030000000     1.446000000    -1.830000000
O    -1.129000000     3.363000000     3.776000000
H    -1.579000000     3.570000000     4.595000000
H    -0.314000000     2.943000000     4.050000000
O     0.888000000    -0.002000000    -3.876000000
H     0.139000000     0.501000000    -4.196000000
H     0.542000000    -0.883000000    -3.735000000
O     6.652000000    -1.853000000     1.857000000
H     6.517000000    -1.436000000     1.006000000
H     7.459000000    -2.356000000     1.752000000
O     2.174000000    -5.975000000    -0.643000000
H     1.421000000    -5.573000000    -1.075000000
H     1.854000000    -6.827000000    -0.346000000
O    -1.726000000     4.806000000     1.334000000
H    -2.455000000     4.415000000     0.853000000
H    -1.519000000     4.166000000     2.016000000
O    -3.892000000    -2.553000000    -0.363000000
H    -4.461000000    -2.918000000     0.314000000
H    -4.208000000    -1.657000000    -0.485000000
O    -4.070000000     3.442000000    -3.189000000
H    -4.784000000     3.165000000    -3.763000000
H    -3.840000000     2.655000000    -2.696000000
O     5.595000000    -0.496000000    -0.570000000
H     5.143000000    -0.897000000    -1.313000000
H     5.008000000     0.203000000    -0.282000000
O    -4.827000000     0.214000000    -4.396000000
H    -5.063000000     0.016000000    -3.489000000
H    -4.212000000    -0.478000000    -4.639000000
O    -4.839000000     6.182000000    -0.027000000
H    -5.306000000     6.907000000     0.389000000
H    -3.973000000     6.539000000    -0.227000000
O     4.979000000    -3.457000000     3.200000000
H     4.594000000    -3.969000000     2.489000000
H     5.512000000    -2.796000000     2.757000000
O    -2.432000000     6.980000000    -1.059000000
H    -1.940000000     6.869000000    -0.245000000
H    -2.045000000     6.346000000    -1.662000000
O     4.010000000     1.565000000     0.049000000
H     3.186000000     1.714000000    -0.414000000
H     4.136000000     2.355000000     0.575000000
O     4.062000000    -6.323000000    -2.818000000
H     4.384000000    -5.596000000    -3.350000000
H     3.475000000    -5.913000000    -2.183000000
O    -1.778000000     4.461000000    -2.491000000
H    -2.473000000     3.848000000    -2.730000000
H    -1.390000000     4.087000000    -1.700000000
O    -4.702000000    -3.155000000    -3.632000000
H    -4.906000000    -2.891000000    -2.735000000
H    -3.865000000    -2.731000000    -3.822000000
O    -7.747000000     2.290000000    -1.065000000
H    -7.138000000     2.847000000    -0.581000000
H    -7.934000000     1.564000000    -0.469000000
O    -5.382000000     3.593000000    -0.258000000
H    -4.507000000     3.228000000    -0.392000000
H    -5.266000000     4.537000000    -0.361000000
O     3.473000000     1.351000000     3.653000000
H     4.168000000     0.693000000     3.619000000
H     3.745000000     2.019000000     3.024000000
O     3.354000000     3.665000000     1.605000000
H     2.799000000     4.136000000     2.226000000
H     4.197000000     4.116000000     1.647000000
O     3.619000000    -0.617000000    -2.613000000
H     3.125000000    -0.036000000    -2.034000000
H     3.209000000    -0.507000000    -3.470000000
O    -4.985000000    -0.419000000    -1.843000000
H    -5.483000000    -0.118000000    -1.083000000
H    -4.193000000     0.119000000    -1.838000000
O    -0.049000000    -4.516000000    -1.233000000
H    -0.974000000    -4.395000000    -1.446000000
H    -0.036000000    -4.641000000    -0.284000000
O    -3.628000000     1.302000000     3.840000000
H    -3.338000000     1.843000000     3.106000000
H    -3.589000000     1.886000000     4.598000000
O    -1.811000000    -1.609000000     1.881000000
H    -1.510000000    -2.168000000     1.165000000
H    -1.997000000    -0.766000000     1.466000000
O    -1.278000000     1.622000000    -4.142000000
H    -1.792000000     1.336000000    -3.387000000
H    -1.931000000     1.869000000    -4.797000000
O     0.297000000    -0.397000000     3.967000000
H     0.124000000    -0.242000000     3.039000000
H     0.196000000    -1.343000000     4.076000000
O     0.487000000     3.880000000    -4.681000000
H     0.733000000     2.960000000    -4.775000000
H    -0.330000000     3.860000000    -4.183000000
O    -5.281000000     0.744000000     0.669000000
H    -4.973000000     1.624000000     0.450000000
H    -5.099000000     0.653000000     1.605000000
O     0.991000000     4.194000000    -1.020000000
H     1.276000000     5.067000000    -1.290000000
H     1.329000000     4.096000000    -0.130000000
O    -2.493000000    -3.985000000    -2.148000000
H    -3.084000000    -3.480000000    -1.589000000
H    -2.992000000    -4.769000000    -2.376000000
O     4.813000000    -2.133000000     5.634000000
H     4.942000000    -2.704000000     4.877000000
H     5.075000000    -1.265000000     5.327000000
O     2.843000000    -3.551000000    -2.517000000
H     3.541000000    -3.063000000    -2.080000000
H     2.044000000    -3.286000000    -2.061000000
O     1.056000000     1.939000000     4.760000000
H     1.958000000     1.835000000     4.458000000
H     0.721000000     1.044000000     4.826000000
O     5.369000000    -3.794000000    -1.385000000
H     6.212000000    -3.505000000    -1.035000000
H     5.423000000    -3.607000000    -2.322000000
O    -0.231000000    -3.232000000     4.350000000
H    -0.219000000    -3.996000000     4.927000000
H    -1.144000000    -3.156000000     4.072000000
O     5.485000000    -0.274000000     3.846000000
H     5.532000000    -0.725000000     3.004000000
H     6.005000000     0.520000000     3.723000000
O     3.962000000    -4.547000000     0.799000000
H     3.292000000    -4.986000000     0.275000000
H     4.522000000    -4.113000000     0.156000000
O    -2.345000000     6.896000000     2.904000000
H    -2.201000000     6.196000000     2.266000000
H    -1.799000000     7.618000000     2.594000000
O    -0.203000000     7.099000000     0.572000000
H    -0.279000000     6.259000000     1.025000000
H     0.240000000     7.670000000     1.200000000
O     1.420000000    -6.376000000     2.905000000
H     1.147000000    -7.203000000     2.509000000
H     2.191000000    -6.113000000     2.403000000
O    -2.316000000    -1.313000000    -5.185000000
H    -1.818000000    -0.649000000    -5.662000000
H    -1.783000000    -2.105000000    -5.249000000
O    -6.299000000     4.288000000     2.237000000
H    -5.433000000     4.506000000     2.582000000
H    -6.129000000     3.959000000     1.355000000
O     2.054000000    -4.095000000    -5.037000000
H     1.723000000    -4.986000000    -4.917000000
H     2.417000000    -3.857000000    -4.184000000
O    -0.244000000    -2.728000000    -4.113000000
H    -0.866000000    -3.011000000    -3.442000000
H    -0.034000000    -3.527000000    -4.597000000
O     2.102000000     1.971000000    -2.146000000
H     1.610000000     2.790000000    -2.089000000
H     1.528000000     1.380000000    -2.634000000
O    -6.105000000     2.884000000    -4.651000000
H    -6.124000000     2.904000000    -5.608000000
H    -5.813000000     1.998000000    -4.436000000
O    -0.234000000    -4.288000000     1.587000000
H     0.410000000    -4.848000000     2.020000000
H    -0.308000000    -3.523000000     2.159000000
