161
-3069.89889
C     0.098000000    -0.466000000    -1.403000000
H     0.128000000    -1.032000000    -2.331000000
C     1.094000000    -0.690000000    -0.466000000
H     1.909000000    -1.364000000    -0.716000000
C     0.897000000    -0.203000000     0.807000000
C     1.792000000    -0.669000000     1.931000000
H     2.797000000    -0.252000000     1.846000000
H     1.346000000    -0.390000000     2.888000000
H     1.809000000    -1.760000000     1.969000000
C    -0.109000000     0.706000000     1.133000000
H    -0.221000000     1.206000000     2.092000000
C    -1.111000000     0.929000000     0.178000000
H    -2.011000000     1.480000000     0.441000000
C    -1.042000000     0.361000000    -1.088000000
C    -2.155000000     0.654000000    -2.141000000
O    -3.155000000     1.302000000    -1.885000000
O    -2.059000000     0.189000000    -3.261000000
O    -0.573000000     4.975000000     2.352000000
H    -0.674000000     5.704000000     2.965000000
H    -1.289000000     4.378000000     2.569000000
O     5.248000000    -3.597000000    -2.103000000
H     4.992000000    -3.181000000    -2.926000000
H     4.479000000    -3.510000000    -1.541000000
O    -6.627000000     3.102000000    -4.926000000
H    -7.242000000     3.363000000    -4.240000000
H    -6.434000000     2.184000000    -4.738000000
O     0.379000000    -4.024000000     3.630000000
H    -0.196000000    -4.384000000     4.306000000
H     0.040000000    -4.385000000     2.811000000
O     1.643000000    -1.702000000    -5.397000000
H     1.132000000    -0.981000000    -5.030000000
H     1.018000000    -2.190000000    -5.933000000
O    -5.789000000     1.767000000    -2.004000000
H    -4.871000000     1.496000000    -1.976000000
H    -6.151000000     1.306000000    -2.761000000
O    -5.875000000     2.777000000     3.255000000
H    -5.682000000     2.986000000     2.341000000
H    -6.605000000     3.354000000     3.483000000
O    -5.431000000     4.406000000    -1.599000000
H    -5.393000000     3.535000000    -1.993000000
H    -4.780000000     4.916000000    -2.081000000
O    -3.364000000    -1.676000000    -4.195000000
H    -2.708000000    -2.358000000    -4.048000000
H    -2.953000000    -0.875000000    -3.870000000
O    -3.622000000     4.579000000    -3.550000000
H    -3.716000000     3.776000000    -4.061000000
H    -4.181000000     5.215000000    -3.998000000
O     4.661000000    -0.694000000    -0.750000000
H     5.605000000    -0.682000000    -0.588000000
H     4.388000000    -1.578000000    -0.504000000
O    -5.563000000     0.363000000    -4.617000000
H    -5.343000000    -0.547000000    -4.420000000
H    -4.718000000     0.789000000    -4.759000000
O    -1.856000000     0.183000000    -6.600000000
H    -1.746000000     0.419000000    -7.521000000
H    -2.118000000    -0.737000000    -6.618000000
O    -0.358000000     2.887000000     6.140000000
H     0.579000000     2.905000000     5.945000000
H    -0.409000000     2.572000000     7.042000000
O     3.789000000     4.348000000    -0.567000000
H     3.259000000     4.933000000    -0.026000000
H     3.408000000     3.481000000    -0.426000000
O     6.029000000     1.972000000    -1.747000000
H     6.032000000     2.899000000    -1.986000000
H     5.254000000     1.870000000    -1.195000000
O    -3.434000000     0.740000000     4.132000000
H    -2.878000000     1.518000000     4.099000000
H    -4.313000000     1.065000000     3.938000000
O     4.467000000    -2.064000000    -4.652000000
H     4.800000000    -2.428000000    -5.472000000
H     3.557000000    -1.836000000    -4.842000000
O    -0.560000000     0.139000000     4.650000000
H    -1.433000000     0.103000000     4.259000000
H    -0.701000000    -0.080000000     5.572000000
O     4.199000000     2.571000000     1.985000000
H     4.103000000     2.036000000     1.197000000
H     4.892000000     2.139000000     2.485000000
O    -4.902000000     3.430000000     0.809000000
H    -5.103000000     3.977000000     0.049000000
H    -4.405000000     4.004000000     1.392000000
O     6.216000000     0.461000000     2.360000000
H     6.619000000     0.224000000     1.525000000
H     6.515000000    -0.214000000     2.970000000
O     0.963000000    -3.992000000    -0.702000000
H     0.826000000    -3.431000000    -1.466000000
H     0.253000000    -4.633000000    -0.747000000
O    -1.920000000    -4.045000000    -3.180000000
H    -2.604000000    -4.053000000    -2.510000000
H    -2.163000000    -4.751000000    -3.778000000
O    -5.164000000    -1.595000000     1.179000000
H    -4.236000000    -1.362000000     1.190000000
H    -5.611000000    -0.787000000     0.927000000
O    -2.123000000     3.108000000     3.997000000
H    -1.271000000     2.925000000     4.392000000
H    -2.646000000     3.470000000     4.712000000
O    -3.232000000     2.185000000    -4.888000000
H    -2.616000000     2.251000000    -5.618000000
H    -2.822000000     1.565000000    -4.284000000
O    -4.737000000    -1.076000000    -1.870000000
H    -4.534000000    -0.183000000    -1.592000000
H    -4.408000000    -1.128000000    -2.767000000
O    -2.283000000    -1.746000000     1.334000000
H    -1.748000000    -1.396000000     0.621000000
H    -2.667000000    -2.546000000     0.974000000
O     0.057000000     0.612000000    -4.741000000
H    -0.510000000     0.340000000    -4.020000000
H    -0.462000000     0.450000000    -5.529000000
O    -6.327000000     0.937000000     0.546000000
H    -5.715000000     1.660000000     0.687000000
H    -6.433000000     0.896000000    -0.405000000
O     1.031000000    -3.304000000    -3.257000000
H     1.237000000    -2.714000000    -3.982000000
H     0.080000000    -3.408000000    -3.296000000
O     2.426000000     1.888000000     5.780000000
H     2.958000000     1.234000000     5.327000000
H     2.096000000     2.454000000     5.082000000
O    -3.145000000    -1.882000000     4.283000000
H    -2.965000000    -2.322000000     3.452000000
H    -3.091000000    -0.949000000     4.076000000
O     3.457000000    -3.418000000    -0.098000000
H     2.571000000    -3.649000000    -0.377000000
H     3.828000000    -4.238000000     0.227000000
O     1.417000000    -1.872000000     5.073000000
H     0.767000000    -1.182000000     4.938000000
H     1.212000000    -2.528000000     4.406000000
O     3.060000000    -5.448000000    -3.960000000
H     2.567000000    -5.623000000    -4.761000000
H     2.517000000    -4.827000000    -3.475000000
O     3.209000000     1.597000000    -0.704000000
H     3.483000000     0.680000000    -0.702000000
H     2.303000000     1.576000000    -1.014000000
O     3.885000000    -3.297000000     2.953000000
H     4.568000000    -2.738000000     2.583000000
H     3.112000000    -3.114000000     2.420000000
O    -6.803000000    -2.658000000    -2.136000000
H    -6.816000000    -2.854000000    -3.073000000
H    -6.061000000    -2.063000000    -2.027000000
O    -3.682000000    -3.429000000    -0.588000000
H    -3.659000000    -2.472000000    -0.603000000
H    -4.553000000    -3.642000000    -0.254000000
O     4.212000000    -0.307000000     5.042000000
H     3.314000000    -0.597000000     5.199000000
H     4.621000000    -1.036000000     4.575000000
O    -4.671000000     0.067000000    -7.142000000
H    -4.119000000     0.692000000    -6.673000000
H    -5.444000000     0.571000000    -7.394000000
O     1.782000000     3.477000000     3.437000000
H     2.459000000     3.202000000     2.820000000
H     1.022000000     3.672000000     2.889000000
O    -1.912000000     3.618000000    -1.886000000
H    -2.322000000     2.784000000    -1.658000000
H    -2.618000000     4.133000000    -2.277000000
O     1.897000000     2.663000000    -5.579000000
H     1.653000000     3.383000000    -4.996000000
H     1.205000000     2.013000000    -5.459000000
O     3.438000000    -3.884000000     5.686000000
H     3.608000000    -3.623000000     4.781000000
H     2.560000000    -3.552000000     5.871000000
O    -0.128000000     5.404000000    -0.629000000
H    -0.763000000     4.890000000    -1.128000000
H    -0.144000000     5.018000000     0.247000000
