161
-3028.21832
C    -0.251000000    -0.499000000    -1.412000000
H    -0.300000000    -0.809000000    -2.452000000
C     0.393000000    -1.251000000    -0.413000000
H     0.917000000    -2.194000000    -0.546000000
C     0.430000000    -0.740000000     0.923000000
C     1.309000000    -1.431000000     1.957000000
H     2.337000000    -1.071000000     2.030000000
H     0.756000000    -1.403000000     2.898000000
H     1.405000000    -2.483000000     1.681000000
C     0.052000000     0.573000000     1.120000000
H     0.101000000     1.133000000     2.051000000
C    -0.530000000     1.344000000     0.121000000
H    -0.897000000     2.328000000     0.403000000
C    -0.723000000     0.797000000    -1.128000000
C    -1.434000000     1.660000000    -2.161000000
O    -1.721000000     2.815000000    -1.865000000
O    -1.837000000     1.230000000    -3.212000000
O     0.489000000     3.743000000     3.399000000
H    -0.307000000     4.058000000     2.972000000
H     0.230000000     3.592000000     4.308000000
O     1.621000000    -2.872000000     6.186000000
H     1.912000000    -2.889000000     5.275000000
H     2.430000000    -2.910000000     6.697000000
O     4.998000000    -0.761000000    -4.200000000
H     4.071000000    -0.925000000    -4.026000000
H     5.108000000     0.177000000    -4.046000000
O    -6.495000000     2.580000000    -5.177000000
H    -7.148000000     1.935000000    -5.447000000
H    -5.988000000     2.138000000    -4.497000000
O    -1.752000000    -3.678000000     1.473000000
H    -1.984000000    -4.347000000     2.118000000
H    -0.883000000    -3.933000000     1.164000000
O     0.493000000    -2.253000000    -5.158000000
H    -0.313000000    -1.801000000    -5.407000000
H     0.421000000    -3.114000000    -5.569000000
O    -5.234000000     1.051000000    -3.070000000
H    -4.407000000     1.380000000    -3.422000000
H    -5.009000000     0.722000000    -2.200000000
O    -5.762000000     2.289000000     2.761000000
H    -4.845000000     2.270000000     2.488000000
H    -5.822000000     3.049000000     3.341000000
O    -3.143000000    -1.171000000    -3.289000000
H    -2.461000000    -1.666000000    -2.835000000
H    -2.766000000    -0.299000000    -3.407000000
O    -5.091000000     4.316000000    -2.713000000
H    -5.544000000     3.969000000    -1.944000000
H    -5.789000000     4.484000000    -3.346000000
O     3.764000000    -0.296000000    -0.691000000
H     3.164000000    -0.989000000    -0.415000000
H     4.631000000    -0.619000000    -0.447000000
O    -5.509000000    -1.225000000    -5.010000000
H    -5.737000000    -2.153000000    -4.966000000
H    -4.659000000    -1.166000000    -4.574000000
O    -1.513000000    -0.617000000    -5.806000000
H    -1.807000000    -0.335000000    -6.672000000
H    -1.552000000     0.176000000    -5.270000000
O    -0.311000000     5.846000000    -4.877000000
H    -0.024000000     6.449000000    -5.563000000
H    -1.216000000     6.099000000    -4.699000000
O     3.135000000     4.564000000    -0.412000000
H     3.202000000     5.164000000     0.331000000
H     2.221000000     4.281000000    -0.409000000
O    -2.873000000     4.034000000    -7.314000000
H    -3.224000000     4.925000000    -7.314000000
H    -2.528000000     3.913000000    -6.430000000
O    -2.964000000     1.712000000     3.242000000
H    -2.619000000     2.576000000     3.017000000
H    -2.472000000     1.107000000     2.687000000
O    -3.539000000    -3.874000000    -5.100000000
H    -3.535000000    -3.053000000    -4.609000000
H    -3.101000000    -4.500000000    -4.522000000
O     2.314000000    -0.335000000    -4.111000000
H     1.605000000    -0.853000000    -4.492000000
H     1.872000000     0.410000000    -3.702000000
O     4.331000000     3.475000000     2.820000000
H     3.886000000     2.914000000     2.184000000
H     4.317000000     2.972000000     3.634000000
O    -3.668000000     2.944000000     0.132000000
H    -2.887000000     2.922000000    -0.421000000
H    -3.411000000     3.472000000     0.889000000
O     3.354000000    -3.514000000    -0.600000000
H     4.058000000    -3.923000000    -1.102000000
H     2.614000000    -3.482000000    -1.206000000
O    -1.236000000    -3.677000000    -2.591000000
H    -1.754000000    -3.541000000    -1.797000000
H    -1.639000000    -4.434000000    -3.014000000
O    -3.950000000    -1.719000000     3.309000000
H    -3.362000000    -1.564000000     4.048000000
H    -3.384000000    -1.668000000     2.539000000
O    -0.004000000     3.239000000     5.800000000
H    -0.215000000     3.919000000     6.439000000
H    -0.096000000     2.418000000     6.284000000
O    -2.745000000     3.372000000    -4.461000000
H    -2.908000000     4.089000000    -3.849000000
H    -2.636000000     2.601000000    -3.904000000
O    -2.260000000     4.536000000     2.023000000
H    -1.991000000     5.298000000     1.511000000
H    -2.471000000     4.890000000     2.887000000
O    -2.754000000    -0.988000000     0.951000000
H    -2.447000000    -0.313000000     0.346000000
H    -2.054000000    -1.640000000     0.959000000
O     0.428000000     1.495000000    -5.041000000
H    -0.392000000     1.494000000    -4.548000000
H     0.183000000     1.806000000    -5.913000000
O    -6.280000000     3.324000000    -0.629000000
H    -5.373000000     3.070000000    -0.462000000
H    -6.743000000     2.494000000    -0.749000000
O     1.898000000    -1.320000000    -7.303000000
H     2.072000000    -2.209000000    -7.614000000
H     1.226000000    -1.430000000    -6.631000000
O    -1.582000000    -3.987000000     5.749000000
H    -1.921000000    -3.104000000     5.602000000
H    -1.982000000    -4.515000000     5.058000000
O     1.594000000    -3.398000000    -2.724000000
H     1.585000000    -3.325000000    -3.678000000
H     0.669000000    -3.407000000    -2.476000000
O     3.561000000     2.751000000     5.953000000
H     3.070000000     2.215000000     5.330000000
H     4.073000000     2.120000000     6.460000000
O    -2.611000000    -1.250000000     5.606000000
H    -2.061000000    -0.468000000     5.550000000
H    -2.832000000    -1.321000000     6.535000000
O     4.598000000    -2.884000000     1.723000000
H     4.210000000    -3.210000000     0.912000000
H     4.801000000    -3.673000000     2.226000000
O     0.962000000    -0.010000000     6.344000000
H     0.948000000    -0.964000000     6.267000000
H     1.581000000     0.275000000     5.672000000
O     3.074000000     1.675000000     1.207000000
H     3.690000000     1.043000000     0.835000000
H     2.319000000     1.647000000     0.620000000
O     0.616000000    -5.072000000     0.416000000
H     0.364000000    -5.766000000    -0.194000000
H     1.492000000    -5.319000000     0.711000000
O     4.659000000    -0.676000000     3.060000000
H     5.553000000    -0.337000000     3.026000000
H     4.676000000    -1.452000000     2.500000000
O    -3.506000000    -3.458000000    -1.017000000
H    -4.176000000    -2.835000000    -1.299000000
H    -3.099000000    -3.044000000    -0.256000000
O     6.355000000    -1.010000000     0.022000000
H     6.914000000    -1.092000000    -0.751000000
H     6.803000000    -0.370000000     0.575000000
O     2.562000000     1.053000000     4.040000000
H     2.307000000     1.654000000     3.340000000
H     3.189000000     0.458000000     3.630000000
O    -2.756000000     5.368000000    -1.977000000
H    -2.171000000     4.611000000    -1.972000000
H    -3.636000000     4.992000000    -1.965000000
O     2.627000000     2.869000000    -4.655000000
H     3.272000000     2.172000000    -4.773000000
H     1.783000000     2.418000000    -4.663000000
O     4.581000000    -2.893000000     4.789000000
H     4.321000000    -2.209000000     4.173000000
H     5.155000000    -3.467000000     4.282000000
O     0.386000000     4.575000000    -1.661000000
H    -0.321000000     3.936000000    -1.573000000
H     0.534000000     4.641000000    -2.604000000
O    -2.048000000     7.513000000    -0.303000000
H    -1.381000000     8.084000000    -0.683000000
H    -2.077000000     6.755000000    -0.888000000
