161
-3073.95406
C    -0.483000000    -0.484000000    -1.315000000
H    -0.782000000    -0.913000000    -2.268000000
C     0.605000000    -0.992000000    -0.555000000
H     1.093000000    -1.885000000    -0.937000000
C     0.990000000    -0.445000000     0.687000000
C     2.052000000    -1.083000000     1.404000000
H     2.903000000    -1.164000000     0.724000000
H     2.386000000    -0.498000000     2.264000000
H     1.788000000    -2.092000000     1.726000000
C     0.178000000     0.599000000     1.223000000
H     0.455000000     1.014000000     2.189000000
C    -0.828000000     1.135000000     0.455000000
H    -1.384000000     1.996000000     0.817000000
C    -1.155000000     0.653000000    -0.829000000
C    -2.328000000     1.224000000    -1.586000000
O    -2.699000000     2.399000000    -1.527000000
O    -2.788000000     0.536000000    -2.475000000
O     0.212000000     4.818000000     2.462000000
H     0.167000000     5.528000000     3.102000000
H     0.331000000     4.028000000     2.988000000
O     2.996000000    -3.679000000    -1.839000000
H     2.817000000    -3.887000000    -2.756000000
H     3.254000000    -2.757000000    -1.847000000
O     1.731000000    -4.688000000     4.062000000
H     1.720000000    -5.026000000     4.958000000
H     0.815000000    -4.715000000     3.785000000
O     2.683000000     1.590000000    -0.926000000
H     2.381000000     1.621000000    -1.834000000
H     2.172000000     2.266000000    -0.481000000
O    -4.292000000     4.320000000    -2.379000000
H    -3.755000000     3.614000000    -2.018000000
H    -5.186000000     4.096000000    -2.119000000
O    -2.525000000     4.752000000     1.884000000
H    -1.838000000     4.650000000     2.542000000
H    -2.284000000     5.546000000     1.406000000
O    -3.641000000    -2.042000000    -2.277000000
H    -3.245000000    -1.177000000    -2.382000000
H    -4.512000000    -1.954000000    -2.663000000
O    -2.417000000     3.961000000    -5.244000000
H    -3.158000000     4.003000000    -4.640000000
H    -1.901000000     4.742000000    -5.045000000
O     5.100000000    -1.379000000     2.471000000
H     4.623000000    -1.741000000     3.217000000
H     5.790000000    -2.019000000     2.294000000
O    -6.854000000     2.496000000    -4.970000000
H    -6.814000000     2.261000000    -5.897000000
H    -6.033000000     2.168000000    -4.603000000
O     1.214000000     2.516000000     4.858000000
H     1.889000000     2.914000000     4.309000000
H     1.691000000     1.908000000     5.423000000
O     0.022000000    -0.977000000    -5.857000000
H    -0.452000000    -1.405000000    -6.570000000
H    -0.480000000    -0.182000000    -5.679000000
O    -3.227000000     0.499000000     2.928000000
H    -2.777000000     1.219000000     3.369000000
H    -3.490000000     0.863000000     2.082000000
O    -4.707000000    -3.586000000    -5.059000000
H    -5.083000000    -2.862000000    -4.559000000
H    -4.534000000    -4.264000000    -4.405000000
O     3.602000000    -0.894000000    -2.144000000
H     3.522000000    -0.727000000    -3.083000000
H     3.304000000    -0.084000000    -1.731000000
O     1.716000000    -1.658000000     6.653000000
H     0.815000000    -1.974000000     6.586000000
H     1.628000000    -0.740000000     6.911000000
O     7.542000000     0.922000000     0.438000000
H     7.575000000     1.803000000     0.065000000
H     6.613000000     0.770000000     0.610000000
O     5.595000000     3.524000000     1.709000000
H     5.481000000     2.744000000     1.167000000
H     6.130000000     3.228000000     2.445000000
O    -0.901000000    -4.489000000    -0.242000000
H    -0.232000000    -5.162000000    -0.365000000
H    -0.875000000    -3.975000000    -1.049000000
O    -1.540000000    -3.918000000    -3.022000000
H    -1.876000000    -4.774000000    -3.290000000
H    -2.316000000    -3.361000000    -2.971000000
O    -1.896000000     1.875000000     4.769000000
H    -1.106000000     1.487000000     5.146000000
H    -1.957000000     2.739000000     5.177000000
O    -4.259000000     1.674000000    -4.247000000
H    -3.967000000     1.277000000    -5.068000000
H    -3.611000000     1.392000000    -3.602000000
O     1.617000000     3.713000000    -2.575000000
H     0.785000000     4.117000000    -2.327000000
H     1.373000000     2.855000000    -2.923000000
O    -6.654000000     1.071000000     1.243000000
H    -6.589000000     0.736000000     0.349000000
H    -5.803000000     1.479000000     1.408000000
O    -2.139000000    -2.144000000     1.688000000
H    -2.257000000    -1.290000000     2.105000000
H    -1.428000000    -2.008000000     1.062000000
O    -1.223000000     1.363000000    -4.630000000
H    -1.748000000     0.977000000    -3.928000000
H    -1.643000000     2.205000000    -4.807000000
O    -6.205000000    -1.623000000    -3.715000000
H    -6.980000000    -2.184000000    -3.697000000
H    -6.392000000    -0.978000000    -4.397000000
O    -4.125000000     2.521000000     0.936000000
H    -3.787000000     3.304000000     1.371000000
H    -3.710000000     2.528000000     0.074000000
O    -3.690000000     6.886000000    -1.763000000
H    -3.983000000     5.975000000    -1.808000000
H    -3.976000000     7.271000000    -2.591000000
O     2.653000000    -0.897000000    -4.715000000
H     3.213000000    -1.666000000    -4.825000000
H     2.155000000    -0.845000000    -5.531000000
O     6.063000000    -5.362000000     0.788000000
H     6.506000000    -4.515000000     0.729000000
H     5.178000000    -5.191000000     0.467000000
O    -0.785000000    -2.217000000     5.515000000
H    -1.237000000    -2.146000000     4.674000000
H    -1.138000000    -3.014000000     5.910000000
O     0.890000000    -3.528000000    -4.248000000
H     0.932000000    -2.685000000    -4.699000000
H    -0.041000000    -3.659000000    -4.070000000
O     6.562000000    -0.909000000    -1.725000000
H     6.805000000    -1.114000000    -2.628000000
H     5.614000000    -1.035000000    -1.698000000
O     3.482000000    -4.229000000     0.768000000
H     3.270000000    -3.441000000     1.269000000
H     3.322000000    -3.984000000    -0.143000000
O     3.435000000    -2.716000000     4.942000000
H     2.799000000    -2.377000000     5.572000000
H     2.948000000    -3.366000000     4.436000000
O     4.801000000     0.701000000     0.430000000
H     4.575000000    -0.046000000     0.983000000
H     3.986000000     0.921000000    -0.021000000
O    -0.685000000    -4.718000000     2.536000000
H    -1.194000000    -4.530000000     1.747000000
H    -1.224000000    -4.387000000     3.254000000
O     2.887000000    -6.446000000     2.385000000
H     3.076000000    -5.795000000     1.709000000
H     2.338000000    -5.982000000     3.017000000
O    -5.724000000     0.972000000    -1.684000000
H    -5.181000000     0.450000000    -2.274000000
H    -5.263000000     1.808000000    -1.610000000
O    -4.625000000    -2.976000000     0.291000000
H    -4.071000000    -2.819000000    -0.473000000
H    -4.086000000    -2.710000000     1.036000000
O     1.555000000    -6.099000000    -1.073000000
H     1.808000000    -5.182000000    -1.184000000
H     2.385000000    -6.576000000    -1.055000000
O     6.844000000    -2.835000000     0.023000000
H     6.843000000    -2.156000000    -0.651000000
H     7.729000000    -2.811000000     0.386000000
O    -4.124000000     0.551000000    -6.872000000
H    -4.675000000    -0.211000000    -7.050000000
H    -4.590000000     1.283000000    -7.278000000
O     3.418000000     3.097000000     3.341000000
H     4.074000000     2.796000000     3.970000000
H     3.923000000     3.331000000     2.563000000
O    -0.820000000     4.244000000    -1.484000000
H    -1.195000000     3.379000000    -1.654000000
H    -1.426000000     4.854000000    -1.904000000
O     1.287000000     1.157000000    -3.497000000
H     0.400000000     1.093000000    -3.851000000
H     1.742000000     0.392000000    -3.848000000
O     1.272000000     5.621000000     0.066000000
H     0.681000000     5.238000000    -0.583000000
H     0.927000000     5.323000000     0.908000000
