161
-3041.03124
C    -0.606000000    -0.340000000    -1.346000000
H    -0.943000000    -0.664000000    -2.328000000
C     0.696000000    -0.718000000    -0.865000000
H     1.334000000    -1.337000000    -1.491000000
C     1.169000000    -0.237000000     0.327000000
C     2.513000000    -0.595000000     0.834000000
H     3.189000000     0.262000000     0.852000000
H     2.390000000    -0.987000000     1.846000000
H     3.001000000    -1.368000000     0.236000000
C     0.333000000     0.524000000     1.139000000
H     0.720000000     0.950000000     2.061000000
C    -0.963000000     0.855000000     0.714000000
H    -1.600000000     1.393000000     1.412000000
C    -1.446000000     0.359000000    -0.441000000
C    -2.874000000     0.629000000    -0.885000000
O    -3.686000000     0.947000000    -0.020000000
O    -3.230000000     0.330000000    -2.040000000
O    -2.929000000     3.302000000     3.167000000
H    -3.064000000     4.224000000     3.389000000
H    -3.812000000     2.954000000     3.042000000
O     4.799000000    -1.224000000     5.106000000
H     5.123000000    -1.169000000     6.005000000
H     5.146000000    -0.441000000     4.679000000
O     3.099000000     0.818000000    -3.874000000
H     3.611000000     1.306000000    -3.229000000
H     2.188000000     0.966000000    -3.619000000
O    -1.718000000     1.181000000    -6.908000000
H    -2.309000000     1.755000000    -7.394000000
H    -2.048000000     1.201000000    -6.010000000
O     4.597000000    -0.962000000    -2.438000000
H     4.068000000    -0.498000000    -3.087000000
H     4.615000000    -0.376000000    -1.681000000
O    -3.432000000     3.759000000    -0.931000000
H    -3.571000000     2.818000000    -1.039000000
H    -2.740000000     3.824000000    -0.272000000
O    -7.116000000    -2.162000000     1.578000000
H    -6.322000000    -1.986000000     1.074000000
H    -7.160000000    -3.117000000     1.631000000
O    -1.398000000     4.120000000     0.858000000
H    -1.809000000     3.985000000     1.712000000
H    -1.309000000     5.070000000     0.783000000
O    -4.636000000    -2.304000000    -0.926000000
H    -4.610000000    -1.353000000    -0.820000000
H    -3.776000000    -2.602000000    -0.627000000
O     0.323000000    -0.341000000    -4.555000000
H     0.870000000    -1.114000000    -4.420000000
H    -0.216000000    -0.558000000    -5.315000000
O     3.473000000    -4.249000000    -0.292000000
H     3.061000000    -3.936000000     0.513000000
H     3.807000000    -5.118000000    -0.068000000
O     2.271000000    -1.649000000     4.548000000
H     1.785000000    -0.877000000     4.839000000
H     3.179000000    -1.465000000     4.787000000
O     1.664000000    -2.569000000    -4.257000000
H     1.506000000    -3.277000000    -3.632000000
H     2.610000000    -2.588000000    -4.405000000
O    -2.237000000     4.259000000    -4.791000000
H    -1.775000000     3.551000000    -4.343000000
H    -3.056000000     3.861000000    -5.088000000
O    -1.219000000     2.249000000     4.898000000
H    -1.762000000     1.461000000     4.873000000
H    -1.685000000     2.878000000     4.347000000
O    -1.788000000    -1.887000000    -6.311000000
H    -2.189000000    -2.186000000    -5.495000000
H    -1.518000000    -2.691000000    -6.754000000
O    -3.067000000    -1.957000000    -3.889000000
H    -3.093000000    -1.174000000    -3.339000000
H    -2.714000000    -2.640000000    -3.318000000
O     2.614000000    -3.625000000     2.545000000
H     2.209000000    -2.858000000     2.950000000
H     3.469000000    -3.697000000     2.969000000
O     6.048000000     1.361000000     4.264000000
H     6.955000000     1.638000000     4.390000000
H     5.565000000     2.176000000     4.131000000
O    -4.986000000     1.876000000     2.388000000
H    -4.483000000     1.391000000     1.734000000
H    -5.897000000     1.636000000     2.217000000
O     7.609000000    -1.553000000     0.948000000
H     7.125000000    -1.897000000     0.197000000
H     7.250000000    -0.677000000     1.083000000
O    -5.981000000     1.127000000    -1.984000000
H    -6.569000000     1.021000000    -1.236000000
H    -5.108000000     0.964000000    -1.626000000
O    -1.632000000    -2.432000000     5.002000000
H    -0.868000000    -2.795000000     5.449000000
H    -1.377000000    -2.396000000     4.081000000
O     1.352000000     0.586000000     5.872000000
H     1.923000000     1.146000000     6.397000000
H     0.711000000     1.186000000     5.491000000
O    -2.227000000    -3.261000000    -0.330000000
H    -2.380000000    -3.598000000    -1.213000000
H    -1.497000000    -3.783000000     0.002000000
O     4.383000000    -2.951000000    -4.457000000
H     4.665000000    -2.311000000    -3.804000000
H     4.688000000    -3.792000000    -4.117000000
O    -5.426000000     4.429000000     1.249000000
H    -4.710000000     3.893000000     0.908000000
H    -6.144000000     4.291000000     0.632000000
O     5.186000000    -3.770000000     3.958000000
H     4.925000000    -4.437000000     4.593000000
H     4.982000000    -2.939000000     4.386000000
O    -3.786000000    -0.735000000     2.154000000
H    -3.682000000    -1.674000000     2.000000000
H    -3.523000000    -0.327000000     1.329000000
O    -6.686000000    -0.222000000    -4.242000000
H    -6.271000000     0.340000000    -3.587000000
H    -6.522000000     0.221000000    -5.075000000
O    -3.617000000     0.787000000    -4.717000000
H    -3.186000000     0.899000000    -3.870000000
H    -3.695000000    -0.161000000    -4.823000000
O    -0.928000000     1.874000000    -3.869000000
H    -0.844000000     1.756000000    -2.923000000
H    -0.490000000     1.111000000    -4.246000000
O     1.270000000    -4.233000000    -2.079000000
H     1.144000000    -5.138000000    -1.791000000
H     1.792000000    -3.832000000    -1.384000000
O    -5.741000000    -4.126000000    -2.789000000
H    -5.212000000    -3.391000000    -2.478000000
H    -6.038000000    -3.857000000    -3.658000000
O    -0.897000000    -1.932000000     2.545000000
H    -0.650000000    -2.352000000     1.720000000
H    -0.758000000    -0.998000000     2.389000000
O     0.994000000    -3.798000000     6.046000000
H     1.558000000    -3.211000000     5.542000000
H     1.588000000    -4.238000000     6.654000000
O     6.635000000     1.042000000     1.316000000
H     6.941000000     1.810000000     0.833000000
H     6.228000000     1.401000000     2.104000000
O    -1.572000000    -4.050000000    -2.744000000
H    -1.414000000    -4.574000000    -3.530000000
H    -0.723000000    -4.016000000    -2.303000000
O    -3.083000000    -0.010000000     4.756000000
H    -2.827000000    -0.932000000     4.726000000
H    -3.517000000     0.146000000     3.917000000
O     1.660000000    -6.217000000     2.223000000
H     2.555000000    -6.243000000     1.883000000
H     1.577000000    -5.347000000     2.613000000
O     6.226000000    -3.497000000    -0.759000000
H     5.272000000    -3.569000000    -0.789000000
H     6.523000000    -4.366000000    -0.488000000
O    -0.088000000    -4.963000000     0.533000000
H    -0.718000000    -5.576000000     0.152000000
H     0.415000000    -5.491000000     1.152000000
O     4.167000000     3.239000000     0.835000000
H     4.917000000     3.408000000     1.405000000
H     3.654000000     4.046000000     0.868000000
O     1.349000000     3.767000000     3.841000000
H     1.998000000     3.472000000     4.481000000
H     1.518000000     3.231000000     3.066000000
O     0.520000000     3.589000000     6.682000000
H     0.344000000     4.522000000     6.802000000
H     0.263000000     3.411000000     5.777000000
O     4.584000000    -5.193000000    -2.902000000
H     4.310000000    -5.057000000    -1.995000000
H     4.132000000    -5.992000000    -3.172000000
O     2.730000000     2.396000000    -1.289000000
H     1.905000000     2.278000000    -0.819000000
H     3.375000000     2.563000000    -0.601000000
O     1.204000000     3.629000000    -4.709000000
H     0.684000000     2.862000000    -4.468000000
H     0.871000000     3.885000000    -5.569000000
