161
-3030.42751
C    -0.964000000     0.704000000    -0.892000000
H    -1.710000000     1.058000000    -1.600000000
C     0.155000000     0.025000000    -1.259000000
H     0.292000000    -0.109000000    -2.329000000
C     1.031000000    -0.478000000    -0.357000000
C     2.266000000    -1.213000000    -0.852000000
H     2.664000000    -1.960000000    -0.163000000
H     2.109000000    -1.720000000    -1.806000000
H     3.054000000    -0.473000000    -1.007000000
C     0.814000000    -0.347000000     1.031000000
H     1.586000000    -0.626000000     1.744000000
C    -0.386000000     0.243000000     1.461000000
H    -0.586000000     0.318000000     2.526000000
C    -1.320000000     0.698000000     0.486000000
C    -2.633000000     1.168000000     0.903000000
O    -3.004000000     0.926000000     2.003000000
O    -3.365000000     1.785000000     0.103000000
O     0.357000000     2.583000000     4.352000000
H     0.482000000     1.687000000     4.665000000
H     0.063000000     3.067000000     5.124000000
O    -0.546000000     4.110000000    -2.684000000
H     0.120000000     3.952000000    -2.015000000
H    -1.292000000     4.464000000    -2.200000000
O     5.314000000    -1.212000000     2.765000000
H     5.085000000    -1.984000000     3.282000000
H     5.827000000    -1.556000000     2.034000000
O    -1.246000000    -2.600000000    -6.724000000
H    -0.553000000    -2.398000000    -6.095000000
H    -1.214000000    -3.552000000    -6.819000000
O    -5.245000000     3.967000000     0.293000000
H    -4.812000000     3.926000000    -0.560000000
H    -4.923000000     3.197000000     0.762000000
O    -7.643000000     1.835000000     4.506000000
H    -6.800000000     1.500000000     4.199000000
H    -7.992000000     2.325000000     3.762000000
O    -7.075000000     2.088000000    -3.057000000
H    -7.243000000     2.998000000    -3.302000000
H    -6.194000000     1.910000000    -3.386000000
O    -3.716000000    -1.380000000    -3.273000000
H    -3.010000000    -1.969000000    -3.006000000
H    -3.321000000    -0.509000000    -3.257000000
O     0.649000000     0.940000000    -4.755000000
H     1.306000000     1.210000000    -4.112000000
H     1.158000000     0.683000000    -5.523000000
O     2.676000000    -5.235000000    -3.061000000
H     2.069000000    -5.094000000    -2.334000000
H     3.488000000    -4.813000000    -2.780000000
O     4.992000000    -4.130000000    -2.360000000
H     5.254000000    -3.496000000    -3.028000000
H     5.757000000    -4.696000000    -2.254000000
O    -6.383000000    -1.674000000    -2.449000000
H    -5.429000000    -1.750000000    -2.436000000
H    -6.562000000    -0.836000000    -2.022000000
O     2.394000000    -2.404000000     5.102000000
H     2.624000000    -1.498000000     4.895000000
H     1.519000000    -2.347000000     5.486000000
O     5.341000000    -2.091000000    -4.340000000
H     5.444000000    -1.139000000    -4.330000000
H     4.491000000    -2.235000000    -4.756000000
O    -5.166000000    -2.084000000     0.565000000
H    -4.536000000    -1.834000000     1.241000000
H    -5.253000000    -1.303000000     0.018000000
O     6.074000000    -3.612000000     1.089000000
H     5.357000000    -4.022000000     1.574000000
H     5.666000000    -3.287000000     0.287000000
O     7.506000000     0.789000000     1.315000000
H     7.047000000     0.664000000     0.484000000
H     6.812000000     0.803000000     1.973000000
O    -3.454000000     3.293000000    -1.832000000
H    -3.079000000     2.716000000    -2.498000000
H    -3.538000000     2.739000000    -1.056000000
O    -0.012000000    -2.664000000     6.081000000
H    -0.316000000    -2.442000000     6.960000000
H    -0.729000000    -2.401000000     5.505000000
O     5.848000000     0.290000000    -0.861000000
H     5.029000000    -0.136000000    -0.609000000
H     5.588000000     1.176000000    -1.114000000
O    -2.848000000    -1.883000000     2.446000000
H    -2.443000000    -1.813000000     3.311000000
H    -2.959000000    -0.977000000     2.159000000
O     2.938000000    -2.154000000    -5.661000000
H     2.948000000    -2.630000000    -6.492000000
H     2.018000000    -2.155000000    -5.396000000
O     0.388000000    -2.000000000    -4.854000000
H    -0.264000000    -2.265000000    -4.205000000
H     0.656000000    -1.123000000    -4.579000000
O     2.590000000    -4.998000000     4.377000000
H     1.662000000    -5.233000000     4.385000000
H     2.609000000    -4.090000000     4.681000000
O    -2.796000000     4.123000000     3.750000000
H    -2.493000000     4.151000000     2.842000000
H    -2.007000000     4.274000000     4.270000000
O     2.308000000     0.607000000     5.411000000
H     3.226000000     0.679000000     5.673000000
H     1.833000000     0.484000000     6.233000000
O     5.711000000     0.563000000    -4.115000000
H     6.587000000     0.883000000    -4.330000000
H     5.126000000     1.277000000    -4.369000000
O    -5.368000000     0.534000000     3.663000000
H    -4.817000000     0.694000000     2.897000000
H    -5.111000000    -0.337000000     3.965000000
O    -5.497000000     0.459000000    -0.808000000
H    -4.781000000     1.035000000    -0.538000000
H    -5.974000000     0.963000000    -1.467000000
O    -1.429000000    -3.146000000    -3.002000000
H    -1.250000000    -3.980000000    -3.438000000
H    -1.237000000    -3.312000000    -2.080000000
O    -2.248000000     1.634000000    -3.990000000
H    -1.306000000     1.543000000    -3.848000000
H    -2.324000000     2.296000000    -4.678000000
O     1.793000000     3.894000000     2.124000000
H     2.135000000     3.330000000     2.818000000
H     0.924000000     3.541000000     1.935000000
O     3.985000000    -5.412000000     1.971000000
H     3.423000000    -5.429000000     2.745000000
H     3.794000000    -6.233000000     1.518000000
O    -2.521000000     1.257000000     4.557000000
H    -2.825000000     1.194000000     3.652000000
H    -2.129000000     2.128000000     4.618000000
O     7.459000000    -1.791000000    -2.467000000
H     6.763000000    -1.236000000    -2.116000000
H     7.300000000    -1.807000000    -3.410000000
O    -3.208000000     5.933000000    -2.192000000
H    -3.449000000     5.031000000    -1.981000000
H    -3.546000000     6.449000000    -1.460000000
O     2.571000000     1.779000000    -3.176000000
H     2.161000000     2.235000000    -2.441000000
H     3.341000000     2.308000000    -3.387000000
O    -1.393000000    -3.428000000    -0.001000000
H    -2.101000000    -4.061000000     0.120000000
H    -1.650000000    -2.676000000     0.532000000
O     0.870000000    -4.455000000    -1.382000000
H     0.378000000    -4.840000000    -0.657000000
H     0.655000000    -3.523000000    -1.349000000
O    -2.269000000    -1.432000000     5.015000000
H    -2.201000000    -0.485000000     5.137000000
H    -3.208000000    -1.612000000     5.058000000
O    -7.512000000    -1.036000000     2.288000000
H    -7.317000000    -1.908000000     2.632000000
H    -6.679000000    -0.567000000     2.340000000
O    -5.253000000     6.395000000     1.872000000
H    -5.069000000     5.619000000     1.342000000
H    -6.175000000     6.308000000     2.113000000
O     1.650000000     3.177000000    -0.985000000
H     1.676000000     2.592000000    -0.227000000
H     2.005000000     4.005000000    -0.661000000
O     4.930000000     2.944000000    -0.434000000
H     5.370000000     3.707000000    -0.810000000
H     4.713000000     3.209000000     0.460000000
O    -5.008000000     3.438000000     5.423000000
H    -4.585000000     4.074000000     4.845000000
H    -4.536000000     2.620000000     5.266000000
O     5.301000000     1.469000000     3.077000000
H     4.585000000     1.749000000     3.648000000
H     5.289000000     0.513000000     3.130000000
O    -1.890000000     4.547000000     1.178000000
H    -1.238000000     5.085000000     0.728000000
H    -2.086000000     3.841000000     0.562000000
O     0.990000000     4.210000000    -4.640000000
H     1.653000000     3.681000000    -4.197000000
H     0.239000000     4.201000000    -4.047000000
