161
-3032.80993
C    -0.903000000     1.141000000     0.232000000
H    -1.595000000     1.912000000     0.561000000
C     0.091000000     0.672000000     1.084000000
H     0.173000000     1.166000000     2.049000000
C     0.970000000    -0.355000000     0.715000000
C     1.954000000    -0.875000000     1.770000000
H     2.373000000    -1.801000000     1.372000000
H     2.580000000    -0.030000000     2.065000000
H     1.412000000    -1.192000000     2.663000000
C     0.802000000    -0.979000000    -0.517000000
H     1.356000000    -1.852000000    -0.853000000
C    -0.216000000    -0.537000000    -1.350000000
H    -0.438000000    -1.122000000    -2.239000000
C    -1.102000000     0.491000000    -0.995000000
C    -2.217000000     0.962000000    -1.938000000
O    -2.438000000     0.468000000    -3.040000000
O    -2.800000000     1.939000000    -1.581000000
O    -1.953000000     2.212000000    -4.976000000
H    -2.277000000     1.542000000    -4.375000000
H    -1.214000000     1.798000000    -5.421000000
O     0.533000000     4.546000000    -2.704000000
H     0.428000000     5.491000000    -2.591000000
H     1.468000000     4.391000000    -2.566000000
O     0.799000000    -4.087000000     2.683000000
H     1.563000000    -4.548000000     2.338000000
H     1.121000000    -3.644000000     3.469000000
O     6.306000000     0.779000000     1.458000000
H     6.978000000     0.796000000     0.776000000
H     6.278000000    -0.134000000     1.744000000
O    -4.416000000    -1.421000000     0.614000000
H    -3.710000000    -2.065000000     0.666000000
H    -5.177000000    -1.871000000     0.982000000
O    -0.356000000    -5.049000000     5.823000000
H    -0.019000000    -5.743000000     6.389000000
H     0.426000000    -4.591000000     5.513000000
O    -3.441000000     6.804000000    -3.163000000
H    -3.326000000     5.856000000    -3.105000000
H    -3.984000000     6.932000000    -3.941000000
O     0.316000000    -3.388000000    -2.859000000
H    -0.381000000    -2.991000000    -3.381000000
H     0.940000000    -3.718000000    -3.505000000
O    -1.207000000     4.000000000    -0.580000000
H    -0.749000000     4.414000000    -1.311000000
H    -1.951000000     3.554000000    -0.985000000
O    -5.672000000    -0.406000000    -6.736000000
H    -5.093000000    -1.125000000    -6.483000000
H    -5.876000000     0.038000000    -5.914000000
O     5.701000000    -0.043000000     5.632000000
H     5.202000000     0.561000000     5.082000000
H     5.044000000    -0.454000000     6.194000000
O    -3.937000000     2.489000000    -6.911000000
H    -3.268000000     2.410000000    -6.231000000
H    -4.578000000     1.811000000    -6.696000000
O    -5.672000000     2.487000000    -4.115000000
H    -5.609000000     1.607000000    -3.743000000
H    -5.505000000     3.072000000    -3.376000000
O    -2.122000000    -3.214000000    -6.672000000
H    -1.700000000    -2.694000000    -7.357000000
H    -1.757000000    -2.875000000    -5.855000000
O    -2.729000000     4.157000000    -3.320000000
H    -2.418000000     3.660000000    -4.076000000
H    -2.845000000     3.501000000    -2.633000000
O     2.353000000     3.134000000     2.926000000
H     2.279000000     3.056000000     1.975000000
H     2.561000000     4.056000000     3.075000000
O     4.263000000     0.097000000    -0.841000000
H     3.344000000     0.218000000    -1.082000000
H     4.457000000     0.834000000    -0.261000000
O    -4.504000000    -2.794000000    -5.432000000
H    -3.635000000    -3.057000000    -5.734000000
H    -4.488000000    -2.951000000    -4.488000000
O     5.805000000     2.963000000     3.061000000
H     5.757000000     2.486000000     2.233000000
H     5.857000000     2.279000000     3.729000000
O     2.004000000    -3.483000000     4.970000000
H     2.889000000    -3.356000000     5.313000000
H     1.430000000    -3.152000000     5.660000000
O    -3.320000000     3.659000000     2.433000000
H    -3.422000000     2.998000000     1.748000000
H    -2.384000000     3.858000000     2.436000000
O     1.332000000    -0.292000000     5.443000000
H     0.910000000    -0.782000000     6.149000000
H     0.618000000    -0.070000000     4.846000000
O    -5.039000000     1.394000000    -0.330000000
H    -4.342000000     1.520000000    -0.974000000
H    -4.939000000     0.487000000    -0.042000000
O    -5.251000000    -3.036000000    -2.760000000
H    -5.035000000    -3.274000000    -1.858000000
H    -6.050000000    -3.526000000    -2.953000000
O    -2.163000000    -5.259000000    -0.453000000
H    -2.409000000    -5.721000000    -1.255000000
H    -1.213000000    -5.163000000    -0.514000000
O    -5.150000000    -0.013000000    -3.482000000
H    -5.340000000    -0.898000000    -3.171000000
H    -4.298000000     0.198000000    -3.100000000
O     3.069000000    -5.071000000     0.044000000
H     3.632000000    -5.748000000     0.420000000
H     3.634000000    -4.602000000    -0.570000000
O    -3.285000000     0.372000000     2.746000000
H    -2.507000000    -0.089000000     3.061000000
H    -3.305000000     0.193000000     1.806000000
O    -3.758000000     1.722000000     5.261000000
H    -4.030000000     2.580000000     4.936000000
H    -3.985000000     1.116000000     4.555000000
O    -5.250000000     4.295000000    -1.093000000
H    -4.553000000     4.836000000    -0.722000000
H    -5.595000000     3.805000000    -0.347000000
O    -1.315000000    -1.259000000    -4.692000000
H    -1.728000000    -0.662000000    -4.067000000
H    -0.631000000    -0.734000000    -5.108000000
O     1.334000000     3.005000000    -4.974000000
H     1.019000000     2.115000000    -5.130000000
H     0.880000000     3.284000000    -4.179000000
O    -7.576000000     2.450000000    -0.072000000
H    -6.676000000     2.126000000    -0.107000000
H    -8.102000000     1.738000000    -0.437000000
O     7.324000000    -1.440000000     3.809000000
H     7.022000000    -2.116000000     3.203000000
H     6.548000000    -1.214000000     4.322000000
O     0.283000000     0.594000000    -6.091000000
H    -0.360000000     0.679000000    -6.795000000
H     1.074000000     0.279000000    -6.527000000
O     5.310000000    -4.174000000     3.092000000
H     4.494000000    -3.741000000     2.841000000
H     5.181000000    -5.089000000     2.844000000
O     3.670000000     1.486000000     4.756000000
H     2.858000000     1.066000000     5.039000000
H     3.416000000     2.014000000     3.999000000
O    -1.081000000     1.386000000     5.466000000
H    -1.330000000     0.673000000     6.054000000
H    -1.912000000     1.784000000     5.207000000
O     3.683000000    -1.683000000     6.791000000
H     3.829000000    -1.464000000     7.711000000
H     2.864000000    -1.241000000     6.567000000
O     0.453000000    -4.773000000    -0.626000000
H     0.360000000    -4.237000000    -1.413000000
H     1.384000000    -4.995000000    -0.597000000
O     1.734000000     3.273000000     0.248000000
H     1.047000000     2.886000000    -0.294000000
H     2.293000000     3.741000000    -0.373000000
O     4.473000000    -3.907000000    -2.049000000
H     4.878000000    -3.268000000    -2.636000000
H     4.393000000    -4.701000000    -2.579000000
O    -1.423000000    -2.394000000     3.609000000
H    -0.597000000    -2.844000000     3.431000000
H    -1.992000000    -2.642000000     2.881000000
O     1.058000000     3.340000000     5.707000000
H     0.417000000     2.629000000     5.741000000
H     1.556000000     3.174000000     4.907000000
O    -3.058000000    -3.520000000     1.467000000
H    -3.571000000    -4.240000000     1.835000000
H    -2.561000000    -3.920000000     0.754000000
O     6.213000000    -2.083000000     1.211000000
H     6.759000000    -2.844000000     1.010000000
H     5.701000000    -1.939000000     0.415000000
O    -0.496000000     5.881000000     4.177000000
H    -0.852000000     6.403000000     3.458000000
H    -0.330000000     5.022000000     3.790000000
O    -0.472000000     3.884000000     2.197000000
H     0.118000000     3.133000000     2.264000000
H    -0.516000000     4.071000000     1.259000000
