161
-3031.43790
C     0.098000000     0.976000000     1.158000000
H     0.220000000     1.671000000     1.985000000
C     1.258000000     0.331000000     0.552000000
H     2.219000000     0.541000000     1.015000000
C     0.989000000    -0.521000000    -0.533000000
C     2.074000000    -1.318000000    -1.214000000
H     2.092000000    -2.357000000    -0.880000000
H     1.948000000    -1.248000000    -2.296000000
H     2.986000000    -0.853000000    -0.833000000
C    -0.287000000    -0.734000000    -1.009000000
H    -0.471000000    -1.310000000    -1.912000000
C    -1.351000000    -0.068000000    -0.476000000
H    -2.343000000    -0.193000000    -0.902000000
C    -1.200000000     0.805000000     0.607000000
C    -2.387000000     1.347000000     1.360000000
O    -3.499000000     1.088000000     0.908000000
O    -2.349000000     1.842000000     2.472000000
O    -6.489000000     1.852000000    -2.535000000
H    -5.546000000     1.807000000    -2.379000000
H    -6.881000000     1.692000000    -1.676000000
O     0.749000000    -2.082000000     4.339000000
H     0.557000000    -1.156000000     4.189000000
H     0.914000000    -2.437000000     3.466000000
O     2.988000000     1.302000000    -5.956000000
H     3.703000000     1.143000000    -5.341000000
H     2.711000000     2.200000000    -5.774000000
O     0.046000000     2.598000000    -1.894000000
H    -0.716000000     3.157000000    -1.743000000
H    -0.306000000     1.708000000    -1.896000000
O    -2.207000000     4.178000000    -0.509000000
H    -2.783000000     4.504000000    -1.201000000
H    -2.773000000     4.111000000     0.260000000
O     4.132000000     0.000000000     3.853000000
H     3.609000000    -0.723000000     3.507000000
H     4.612000000     0.332000000     3.094000000
O     3.116000000     3.232000000     4.584000000
H     2.165000000     3.211000000     4.695000000
H     3.244000000     3.469000000     3.666000000
O     0.239000000    -2.855000000     1.667000000
H     0.329000000    -3.508000000     0.973000000
H    -0.685000000    -2.607000000     1.645000000
O    -2.818000000    -4.015000000    -1.271000000
H    -2.978000000    -4.138000000    -2.206000000
H    -3.566000000    -4.432000000    -0.843000000
O    -7.128000000     0.371000000    -0.072000000
H    -7.909000000    -0.108000000     0.203000000
H    -6.799000000     0.776000000     0.731000000
O     4.998000000    -2.748000000    -2.940000000
H     4.608000000    -2.417000000    -2.131000000
H     4.268000000    -3.151000000    -3.410000000
O     5.901000000     0.967000000     1.528000000
H     6.014000000     0.185000000     0.987000000
H     6.791000000     1.292000000     1.668000000
O     3.252000000    -4.053000000    -4.461000000
H     2.449000000    -3.797000000    -4.915000000
H     3.711000000    -4.615000000    -5.086000000
O    -4.845000000    -1.307000000     0.745000000
H    -5.722000000    -1.202000000     1.113000000
H    -4.506000000    -0.415000000     0.675000000
O    -2.853000000     1.158000000     6.623000000
H    -3.327000000     1.077000000     5.795000000
H    -3.281000000     1.885000000     7.074000000
O    -4.507000000     5.293000000     1.256000000
H    -5.323000000     5.407000000     0.769000000
H    -4.486000000     6.031000000     1.864000000
O    -6.885000000    -0.719000000     2.848000000
H    -7.391000000     0.049000000     3.115000000
H    -7.522000000    -1.284000000     2.409000000
O     3.305000000    -2.320000000     2.487000000
H     3.786000000    -3.146000000     2.542000000
H     2.587000000    -2.501000000     1.880000000
O     0.599000000     3.486000000     5.199000000
H    -0.342000000     3.550000000     5.037000000
H     0.666000000     3.169000000     6.100000000
O     0.357000000     0.368000000    -5.370000000
H     1.274000000     0.291000000    -5.635000000
H     0.194000000     1.310000000    -5.342000000
O     6.163000000     1.949000000    -2.379000000
H     5.871000000     1.306000000    -3.025000000
H     6.561000000     2.647000000    -2.899000000
O    -0.221000000    -4.669000000    -0.393000000
H    -1.011000000    -4.188000000    -0.641000000
H    -0.542000000    -5.404000000     0.129000000
O     7.445000000    -2.529000000    -1.989000000
H     8.087000000    -3.053000000    -2.469000000
H     6.625000000    -2.661000000    -2.464000000
O     5.191000000    -4.352000000     1.676000000
H     5.982000000    -3.922000000     2.000000000
H     5.465000000    -4.777000000     0.863000000
O    -2.090000000     4.447000000     6.085000000
H    -2.942000000     4.313000000     6.500000000
H    -2.299000000     4.718000000     5.191000000
O    -2.182000000     4.575000000     3.335000000
H    -2.478000000     3.685000000     3.145000000
H    -1.493000000     4.741000000     2.691000000
O     4.462000000     2.604000000    -0.243000000
H     4.976000000     2.395000000    -1.023000000
H     4.890000000     2.118000000     0.463000000
O     3.555000000    -5.734000000    -2.256000000
H     2.743000000    -6.128000000    -1.939000000
H     3.273000000    -5.118000000    -2.933000000
O     1.691000000     3.598000000    -0.031000000
H     2.311000000     2.924000000    -0.310000000
H     0.922000000     3.461000000    -0.585000000
O    -6.340000000     2.825000000     1.431000000
H    -6.078000000     2.998000000     2.335000000
H    -5.526000000     2.881000000     0.931000000
O     5.196000000     0.092000000    -4.433000000
H     5.027000000    -0.840000000    -4.293000000
H     5.935000000     0.112000000    -5.040000000
O    -1.273000000    -1.690000000    -5.064000000
H    -1.784000000    -1.422000000    -4.301000000
H    -0.650000000    -0.976000000    -5.198000000
O    -3.323000000    -0.847000000    -3.285000000
H    -3.474000000     0.002000000    -2.870000000
H    -3.971000000    -1.428000000    -2.886000000
O    -1.021000000     0.229000000     4.005000000
H    -1.562000000     0.749000000     3.411000000
H    -0.702000000     0.860000000     4.651000000
O    -2.207000000    -2.425000000     4.060000000
H    -1.720000000    -1.605000000     4.143000000
H    -2.339000000    -2.531000000     3.118000000
O    -4.558000000     0.129000000     4.169000000
H    -5.271000000    -0.330000000     3.726000000
H    -3.948000000     0.358000000     3.467000000
O    -2.414000000    -2.509000000     1.127000000
H    -3.148000000    -1.910000000     0.993000000
H    -2.362000000    -3.011000000     0.313000000
O     1.299000000    -6.957000000    -1.115000000
H     0.797000000    -6.141000000    -1.099000000
H     1.467000000    -7.152000000    -0.193000000
O    -3.857000000     2.120000000    -2.105000000
H    -3.823000000     3.070000000    -2.213000000
H    -3.317000000     1.946000000    -1.335000000
O    -4.807000000     2.944000000     3.593000000
H    -5.019000000     2.174000000     4.120000000
H    -3.961000000     2.736000000     3.195000000
O    -4.796000000    -3.617000000     2.453000000
H    -4.241000000    -4.331000000     2.140000000
H    -4.965000000    -3.086000000     1.674000000
O     6.126000000    -1.460000000     0.241000000
H     5.991000000    -2.298000000     0.683000000
H     6.769000000    -1.651000000    -0.443000000
O    -5.182000000     5.578000000     4.323000000
H    -4.440000000     6.065000000     4.682000000
H    -4.857000000     4.683000000     4.225000000
O    -0.129000000    -4.266000000    -4.324000000
H     0.010000000    -3.423000000    -3.891000000
H     0.366000000    -4.200000000    -5.141000000
O     2.838000000     3.627000000    -2.957000000
H     2.077000000     3.083000000    -2.756000000
H     2.716000000     4.415000000    -2.427000000
O     0.470000000     5.298000000     1.744000000
H     0.295000000     5.941000000     1.056000000
H     0.708000000     4.501000000     1.271000000
O     3.721000000     4.364000000     2.107000000
H     3.655000000     5.305000000     1.948000000
H     3.468000000     3.962000000     1.276000000
O    -5.511000000    -1.954000000    -1.755000000
H    -5.274000000    -1.690000000    -0.865000000
H    -6.269000000    -1.412000000    -1.972000000
