161
-2985.15430
C    -0.801000000     1.142000000     0.477000000
H    -1.207000000     2.113000000     0.745000000
C     0.545000000     1.218000000     0.149000000
H     1.142000000     2.117000000     0.281000000
C     1.219000000     0.049000000    -0.188000000
C     2.655000000     0.020000000    -0.673000000
H     2.856000000    -0.506000000    -1.609000000
H     2.921000000     1.069000000    -0.818000000
H     3.229000000    -0.530000000     0.077000000
C     0.492000000    -1.131000000    -0.341000000
H     0.942000000    -2.086000000    -0.602000000
C    -0.838000000    -1.194000000    -0.033000000
H    -1.359000000    -2.143000000    -0.131000000
C    -1.533000000    -0.030000000     0.429000000
C    -3.036000000     0.034000000     0.558000000
O    -3.677000000    -0.943000000     0.316000000
O    -3.557000000     0.798000000     1.355000000
O    -0.970000000    -2.323000000     3.177000000
H    -0.250000000    -1.692000000     3.187000000
H    -0.744000000    -2.934000000     2.477000000
O    -0.491000000     1.434000000    -2.585000000
H     0.130000000     1.511000000    -1.861000000
H     0.047000000     1.520000000    -3.372000000
O    -5.743000000    -3.222000000     0.161000000
H    -5.929000000    -3.896000000    -0.493000000
H    -5.700000000    -2.408000000    -0.340000000
O    -0.018000000     5.513000000    -1.275000000
H    -0.919000000     5.272000000    -1.491000000
H    -0.056000000     6.455000000    -1.110000000
O    -4.451000000     1.479000000    -3.855000000
H    -3.960000000     0.661000000    -3.776000000
H    -4.884000000     1.581000000    -3.007000000
O     1.614000000    -1.042000000     2.564000000
H     1.517000000    -0.486000000     1.790000000
H     2.343000000    -1.624000000     2.351000000
O    -6.177000000     1.717000000     1.167000000
H    -6.183000000     2.325000000     0.427000000
H    -5.256000000     1.481000000     1.276000000
O     3.263000000    -2.838000000     1.063000000
H     4.002000000    -3.172000000     1.571000000
H     3.522000000    -2.968000000     0.150000000
O    -2.791000000    -5.594000000     2.865000000
H    -2.804000000    -4.730000000     2.454000000
H    -2.681000000    -5.413000000     3.799000000
O    -7.838000000    -3.608000000     2.005000000
H    -8.155000000    -4.485000000     1.788000000
H    -7.113000000    -3.459000000     1.397000000
O     3.423000000    -3.404000000    -4.234000000
H     3.812000000    -4.030000000    -4.845000000
H     3.049000000    -2.723000000    -4.793000000
O    -5.462000000     3.702000000     4.839000000
H    -5.380000000     4.010000000     3.937000000
H    -5.417000000     2.748000000     4.772000000
O     3.844000000     3.625000000     0.113000000
H     3.594000000     4.511000000     0.377000000
H     3.068000000     3.279000000    -0.328000000
O    -1.675000000    -2.816000000    -4.268000000
H    -2.489000000    -3.277000000    -4.065000000
H    -1.037000000    -3.173000000    -3.649000000
O     4.126000000    -3.607000000    -1.634000000
H     3.785000000    -3.477000000    -2.519000000
H     5.050000000    -3.365000000    -1.695000000
O     7.005000000    -0.347000000    -0.391000000
H     6.518000000     0.065000000    -1.105000000
H     7.896000000    -0.009000000    -0.482000000
O    -0.233000000    -5.366000000    -0.783000000
H     0.179000000    -4.647000000    -1.262000000
H    -0.844000000    -5.753000000    -1.410000000
O    -5.322000000    -1.507000000     2.369000000
H    -5.786000000    -2.133000000     1.813000000
H    -4.989000000    -0.847000000     1.761000000
O     6.709000000     3.392000000     0.071000000
H     6.844000000     3.948000000     0.838000000
H     5.772000000     3.462000000    -0.114000000
O    -5.730000000     5.027000000     2.315000000
H    -6.302000000     4.359000000     1.937000000
H    -5.046000000     5.156000000     1.658000000
O    -0.030000000     4.502000000     1.544000000
H     0.311000000     4.912000000     0.749000000
H    -0.901000000     4.190000000     1.298000000
O    -6.128000000     4.027000000    -0.470000000
H    -6.892000000     4.603000000    -0.469000000
H    -5.574000000     4.366000000    -1.174000000
O     5.488000000     3.629000000    -2.851000000
H     5.311000000     2.703000000    -2.681000000
H     5.951000000     3.932000000    -2.070000000
O     1.061000000    -0.693000000     5.247000000
H     2.001000000    -0.826000000     5.371000000
H     0.942000000    -0.694000000     4.297000000
O    -2.499000000    -0.194000000    -3.550000000
H    -1.957000000     0.413000000    -3.045000000
H    -1.939000000    -0.959000000    -3.685000000
O     1.218000000     2.541000000    -4.526000000
H     1.057000000     2.265000000    -5.428000000
H     2.165000000     2.457000000    -4.415000000
O    -5.841000000     1.009000000     3.913000000
H    -5.946000000     1.035000000     2.962000000
H    -5.471000000     0.144000000     4.090000000
O     0.644000000    -3.974000000     1.520000000
H     1.566000000    -3.739000000     1.410000000
H     0.403000000    -4.388000000     0.691000000
O     6.061000000    -0.692000000     2.453000000
H     6.256000000    -0.750000000     1.518000000
H     5.908000000    -1.598000000     2.723000000
O    -2.705000000     2.824000000     3.105000000
H    -3.188000000     2.122000000     2.668000000
H    -2.867000000     3.598000000     2.567000000
O    -7.692000000    -1.474000000    -1.669000000
H    -7.999000000    -2.380000000    -1.718000000
H    -8.302000000    -0.984000000    -2.220000000
O     4.285000000     1.228000000     2.367000000
H     4.895000000     0.491000000     2.385000000
H     4.710000000     1.877000000     1.806000000
O     5.197000000     0.962000000    -2.161000000
H     5.377000000     0.278000000    -2.806000000
H     4.388000000     0.682000000    -1.734000000
O    -1.977000000     5.770000000     3.180000000
H    -1.059000000     5.530000000     3.308000000
H    -2.201000000     5.411000000     2.322000000
O    -5.435000000     0.327000000    -1.356000000
H    -6.281000000    -0.116000000    -1.284000000
H    -4.911000000    -0.039000000    -0.644000000
O    -2.854000000     4.772000000     0.958000000
H    -2.611000000     5.590000000     0.524000000
H    -3.003000000     4.156000000     0.241000000
O     5.210000000    -0.753000000    -4.280000000
H     5.135000000    -1.676000000    -4.524000000
H     5.611000000    -0.336000000    -5.042000000
O    -0.963000000     2.537000000     5.442000000
H    -1.644000000     2.730000000     4.798000000
H    -0.839000000     1.590000000     5.383000000
O    -2.476000000    -0.069000000     4.223000000
H    -1.910000000    -0.778000000     3.918000000
H    -3.164000000    -0.010000000     3.560000000
O    -3.045000000    -3.385000000     1.477000000
H    -2.905000000    -2.454000000     1.646000000
H    -3.833000000    -3.414000000     0.933000000
O     3.085000000    -6.035000000    -0.502000000
H     2.188000000    -5.725000000    -0.624000000
H     3.606000000    -5.505000000    -1.105000000
O    -5.001000000    -2.091000000     5.371000000
H    -4.843000000    -1.885000000     4.450000000
H    -4.233000000    -2.595000000     5.639000000
O    -3.611000000    -2.694000000    -2.085000000
H    -3.476000000    -2.933000000    -1.168000000
H    -3.615000000    -1.737000000    -2.084000000
O    -2.192000000     3.911000000    -2.051000000
H    -2.307000000     2.964000000    -1.979000000
H    -1.743000000     4.035000000    -2.887000000
O     0.552000000    -3.602000000    -2.698000000
H     0.982000000    -4.381000000    -3.050000000
H     1.069000000    -2.870000000    -3.035000000
O     1.281000000     6.423000000     3.022000000
H     1.008000000     5.741000000     2.408000000
H     1.015000000     7.242000000     2.605000000
O     5.381000000    -3.200000000     2.840000000
H     4.993000000    -3.627000000     3.604000000
H     5.991000000    -3.848000000     2.487000000
O     1.832000000     3.668000000    -1.849000000
H     1.226000000     3.235000000    -2.451000000
H     1.325000000     4.389000000    -1.477000000
