161
-3005.91277
C    -0.924000000     0.806000000     1.016000000
H    -1.505000000     1.485000000     1.633000000
C     0.426000000     1.041000000     0.752000000
H     0.866000000     1.912000000     1.232000000
C     1.176000000     0.271000000    -0.141000000
C     2.606000000     0.567000000    -0.558000000
H     3.133000000     1.313000000     0.041000000
H     3.171000000    -0.368000000    -0.559000000
H     2.616000000     0.776000000    -1.630000000
C     0.585000000    -0.849000000    -0.687000000
H     1.218000000    -1.460000000    -1.324000000
C    -0.704000000    -1.176000000    -0.432000000
H    -1.038000000    -2.087000000    -0.922000000
C    -1.497000000    -0.365000000     0.397000000
C    -2.962000000    -0.561000000     0.393000000
O    -3.513000000    -1.440000000    -0.258000000
O    -3.659000000     0.142000000     1.047000000
O     5.312000000     3.476000000     3.795000000
H     5.517000000     3.721000000     2.893000000
H     5.406000000     4.289000000     4.291000000
O    -0.243000000    -1.412000000     2.939000000
H    -0.047000000    -0.903000000     2.152000000
H     0.578000000    -1.859000000     3.144000000
O    -6.090000000    -4.340000000    -0.845000000
H    -6.535000000    -4.133000000    -1.667000000
H    -6.012000000    -5.294000000    -0.848000000
O    -1.082000000     1.227000000    -2.563000000
H    -0.577000000     0.671000000    -1.970000000
H    -0.432000000     1.588000000    -3.166000000
O    -5.744000000    -2.359000000     0.793000000
H    -4.941000000    -1.931000000     0.495000000
H    -5.876000000    -3.077000000     0.173000000
O    -2.261000000     0.110000000    -4.937000000
H    -1.871000000    -0.727000000    -5.190000000
H    -1.867000000     0.311000000    -4.088000000
O     1.990000000     4.512000000     0.939000000
H     1.305000000     4.185000000     0.357000000
H     2.796000000     4.115000000     0.608000000
O    -3.582000000     1.773000000    -2.399000000
H    -2.656000000     1.539000000    -2.341000000
H    -4.043000000     0.935000000    -2.380000000
O     2.492000000    -1.676000000     4.017000000
H     3.033000000    -1.791000000     3.237000000
H     2.965000000    -2.141000000     4.707000000
O     3.197000000     3.674000000    -6.242000000
H     3.282000000     3.442000000    -5.317000000
H     2.442000000     4.261000000    -6.274000000
O    -5.033000000     2.370000000     0.555000000
H    -5.902000000     1.971000000     0.603000000
H    -4.429000000     1.627000000     0.559000000
O     2.234000000    -3.961000000     0.897000000
H     2.675000000    -3.297000000     1.427000000
H     2.891000000    -4.646000000     0.777000000
O    -7.398000000    -4.077000000     2.276000000
H    -8.128000000    -4.380000000     1.736000000
H    -6.862000000    -3.552000000     1.682000000
O     3.260000000    -4.595000000    -3.154000000
H     3.478000000    -5.286000000    -3.779000000
H     3.406000000    -3.781000000    -3.635000000
O    -2.553000000     6.061000000     3.848000000
H    -2.249000000     5.156000000     3.924000000
H    -2.569000000     6.230000000     2.906000000
O     4.453000000     3.738000000     0.120000000
H     4.119000000     3.635000000    -0.771000000
H     4.841000000     2.888000000     0.329000000
O    -1.066000000    -2.170000000    -4.647000000
H    -1.866000000    -2.245000000    -4.127000000
H    -0.524000000    -2.905000000    -4.360000000
O     5.674000000    -1.253000000    -0.397000000
H     5.253000000    -1.521000000    -1.214000000
H     6.418000000    -1.849000000    -0.305000000
O     1.912000000     4.543000000     4.501000000
H     2.562000000     3.873000000     4.288000000
H     1.145000000     4.307000000     3.979000000
O     5.526000000     1.518000000     1.005000000
H     5.445000000     0.801000000     0.376000000
H     5.871000000     1.104000000     1.796000000
O    -5.762000000     0.007000000     2.977000000
H    -5.990000000    -0.695000000     2.368000000
H    -4.925000000     0.341000000     2.654000000
O    -5.515000000     4.647000000     2.822000000
H    -5.767000000     3.886000000     2.298000000
H    -4.573000000     4.737000000     2.676000000
O    -0.077000000     3.966000000     2.677000000
H     0.534000000     4.444000000     2.116000000
H    -0.819000000     3.764000000     2.106000000
O     2.229000000     0.883000000     5.687000000
H     1.869000000     0.198000000     5.123000000
H     1.904000000     0.668000000     6.561000000
O    -4.869000000    -0.553000000    -5.176000000
H    -3.969000000    -0.255000000    -5.043000000
H    -5.252000000    -0.559000000    -4.299000000
O     1.392000000     2.146000000    -4.224000000
H     0.887000000     2.795000000    -4.714000000
H     1.571000000     1.453000000    -4.860000000
O    -8.009000000    -0.252000000     3.978000000
H    -8.363000000    -0.777000000     3.260000000
H    -7.185000000     0.096000000     3.636000000
O    -0.298000000    -4.686000000     0.285000000
H     0.499000000    -4.452000000     0.760000000
H    -0.059000000    -4.605000000    -0.638000000
O     4.341000000    -2.352000000     2.019000000
H     4.715000000    -1.716000000     1.410000000
H     5.021000000    -3.018000000     2.119000000
O    -2.692000000     3.930000000     1.231000000
H    -3.395000000     3.305000000     1.055000000
H    -2.600000000     4.423000000     0.415000000
O    -6.607000000    -2.305000000    -3.035000000
H    -6.468000000    -2.914000000    -3.760000000
H    -7.418000000    -1.848000000    -3.259000000
O     5.980000000     5.796000000     1.252000000
H     5.398000000     5.075000000     1.012000000
H     5.590000000     6.566000000     0.840000000
O    -8.023000000    -0.603000000     1.029000000
H    -8.047000000    -0.055000000     0.245000000
H    -7.201000000    -1.088000000     0.956000000
O     4.786000000     1.911000000    -3.840000000
H     4.522000000     1.110000000    -4.294000000
H     4.171000000     1.985000000    -3.110000000
O    -5.014000000    -0.349000000    -2.052000000
H    -5.806000000    -0.863000000    -2.209000000
H    -4.643000000    -0.719000000    -1.251000000
O    -2.548000000     4.582000000    -1.407000000
H    -3.046000000     5.138000000    -2.005000000
H    -2.785000000     3.689000000    -1.658000000
O     5.101000000    -1.087000000    -3.277000000
H     4.908000000    -1.945000000    -3.654000000
H     6.054000000    -1.071000000    -3.193000000
O    -2.712000000    -5.483000000    -1.279000000
H    -1.824000000    -5.125000000    -1.281000000
H    -2.987000000    -5.436000000    -0.364000000
O    -1.800000000     2.886000000     5.005000000
H    -0.966000000     3.119000000     4.598000000
H    -2.079000000     2.094000000     4.544000000
O     1.017000000    -0.382000000    -5.682000000
H     0.207000000    -0.889000000    -5.730000000
H     1.712000000    -1.030000000    -5.796000000
O    -2.970000000     0.796000000     3.863000000
H    -2.835000000     0.699000000     2.921000000
H    -2.907000000    -0.095000000     4.208000000
O    -3.133000000    -4.446000000     1.290000000
H    -2.202000000    -4.667000000     1.320000000
H    -3.171000000    -3.638000000     0.778000000
O     0.150000000    -4.299000000    -2.672000000
H     1.091000000    -4.123000000    -2.657000000
H     0.027000000    -4.880000000    -3.422000000
O    -4.296000000    -1.622000000     5.808000000
H    -5.152000000    -1.423000000     5.429000000
H    -3.824000000    -2.076000000     5.111000000
O    -3.196000000    -2.623000000    -2.707000000
H    -3.070000000    -2.369000000    -1.792000000
H    -4.144000000    -2.585000000    -2.838000000
O     0.162000000     3.677000000    -0.822000000
H    -0.015000000     2.782000000    -1.113000000
H    -0.688000000     4.115000000    -0.865000000
O     0.748000000     7.163000000     0.948000000
H     1.177000000     6.358000000     0.660000000
H     0.825000000     7.756000000     0.200000000
O     3.055000000     3.891000000    -2.482000000
H     2.352000000     3.496000000    -2.998000000
H     2.722000000     4.757000000    -2.247000000
