161
-3026.11097
C     1.138000000     0.331000000     1.039000000
H     1.951000000     0.506000000     1.738000000
C     1.334000000    -0.181000000    -0.258000000
H     2.380000000    -0.363000000    -0.489000000
C     0.278000000    -0.443000000    -1.097000000
C     0.314000000    -1.059000000    -2.487000000
H    -0.204000000    -0.521000000    -3.283000000
H     1.350000000    -1.228000000    -2.788000000
H    -0.031000000    -2.093000000    -2.420000000
C    -1.028000000    -0.239000000    -0.713000000
H    -1.889000000    -0.423000000    -1.350000000
C    -1.298000000     0.292000000     0.563000000
H    -2.299000000     0.663000000     0.764000000
C    -0.203000000     0.553000000     1.467000000
C    -0.559000000     1.168000000     2.772000000
O    -1.625000000     1.679000000     2.971000000
O     0.398000000     1.352000000     3.563000000
O     7.263000000    -0.250000000     0.313000000
H     6.800000000    -0.536000000    -0.475000000
H     7.518000000    -1.064000000     0.748000000
O     0.894000000    -1.769000000     3.983000000
H     0.604000000    -1.259000000     3.227000000
H     0.092000000    -1.952000000     4.471000000
O    -4.803000000     3.664000000    -0.643000000
H    -4.021000000     3.526000000    -0.108000000
H    -4.515000000     3.486000000    -1.538000000
O     0.325000000    -1.862000000    -5.947000000
H     0.402000000    -2.774000000    -6.228000000
H     0.211000000    -1.369000000    -6.760000000
O    -5.024000000    -4.621000000    -1.225000000
H    -4.214000000    -4.301000000    -0.828000000
H    -4.763000000    -4.910000000    -2.100000000
O     0.310000000     5.505000000     2.707000000
H     0.758000000     4.761000000     3.109000000
H    -0.209000000     5.119000000     2.001000000
O    -2.305000000     2.865000000    -1.414000000
H    -1.566000000     3.281000000    -1.856000000
H    -2.649000000     2.243000000    -2.055000000
O    -4.607000000     2.238000000     6.519000000
H    -5.512000000     2.368000000     6.233000000
H    -4.188000000     1.785000000     5.787000000
O     2.732000000    -3.367000000     2.621000000
H     1.962000000    -3.562000000     2.088000000
H     2.376000000    -3.006000000     3.433000000
O    -2.084000000    -4.739000000    -2.131000000
H    -2.244000000    -4.314000000    -1.289000000
H    -2.289000000    -4.067000000    -2.781000000
O    -2.384000000    -2.120000000     4.933000000
H    -3.050000000    -2.709000000     5.287000000
H    -2.860000000    -1.317000000     4.723000000
O     3.177000000     0.267000000     5.897000000
H     3.339000000    -0.273000000     5.123000000
H     3.251000000    -0.341000000     6.633000000
O     4.714000000    -0.761000000    -3.835000000
H     5.304000000    -0.183000000    -4.319000000
H     3.984000000    -0.914000000    -4.434000000
O    -6.399000000     1.590000000    -0.389000000
H    -5.782000000     2.317000000    -0.477000000
H    -6.328000000     1.115000000    -1.217000000
O     3.257000000     2.951000000     6.319000000
H     3.189000000     2.027000000     6.082000000
H     2.351000000     3.259000000     6.350000000
O    -3.058000000    -3.201000000    -0.155000000
H    -2.885000000    -3.495000000     0.740000000
H    -3.186000000    -2.256000000    -0.075000000
O    -6.105000000    -2.182000000    -1.436000000
H    -5.883000000    -2.075000000    -2.361000000
H    -5.951000000    -3.110000000    -1.258000000
O     0.230000000    -3.134000000     1.357000000
H    -0.609000000    -3.104000000     1.817000000
H     0.221000000    -2.360000000     0.792000000
O    -3.457000000     0.611000000     4.431000000
H    -4.131000000     0.780000000     3.773000000
H    -2.682000000     1.066000000     4.103000000
O     1.554000000     1.930000000    -6.660000000
H     2.040000000     1.249000000    -7.125000000
H     0.636000000     1.670000000    -6.745000000
O     4.067000000    -1.174000000     3.848000000
H     3.905000000    -1.800000000     3.141000000
H     4.900000000    -0.763000000     3.617000000
O    -1.491000000     4.602000000     7.478000000
H    -2.409000000     4.380000000     7.635000000
H    -1.220000000     4.016000000     6.771000000
O     1.391000000     3.231000000    -0.049000000
H     0.550000000     3.630000000     0.176000000
H     1.157000000     2.404000000    -0.471000000
O     4.300000000     3.254000000    -0.096000000
H     3.358000000     3.159000000     0.044000000
H     4.454000000     2.869000000    -0.959000000
O     2.011000000    -3.703000000    -2.927000000
H     1.417000000    -4.432000000    -2.747000000
H     1.556000000    -2.934000000    -2.582000000
O     0.389000000     0.717000000     6.367000000
H     1.342000000     0.759000000     6.288000000
H     0.068000000     0.839000000     5.474000000
O     6.250000000    -1.957000000    -1.764000000
H     5.763000000    -1.733000000    -2.558000000
H     5.990000000    -2.858000000    -1.571000000
O     1.976000000     3.249000000     2.734000000
H     1.939000000     3.072000000     1.794000000
H     1.428000000     2.570000000     3.127000000
O    -3.505000000     3.287000000     1.633000000
H    -3.066000000     2.560000000     2.073000000
H    -2.819000000     3.942000000     1.509000000
O     2.764000000    -0.956000000    -5.774000000
H     1.932000000    -1.429000000    -5.812000000
H     3.000000000    -0.812000000    -6.690000000
O    -2.004000000     1.212000000    -4.222000000
H    -1.561000000     1.178000000    -5.070000000
H    -1.568000000     1.923000000    -3.753000000
O    -4.780000000    -1.376000000     2.155000000
H    -5.264000000    -1.761000000     1.424000000
H    -5.184000000    -0.518000000     2.284000000
O    -2.317000000     3.906000000     4.304000000
H    -2.024000000     3.197000000     3.732000000
H    -2.615000000     4.590000000     3.704000000
O    -4.050000000    -0.243000000    -2.924000000
H    -3.540000000     0.368000000    -3.455000000
H    -4.949000000     0.080000000    -2.985000000
O    -5.383000000     1.177000000     2.556000000
H    -6.152000000     1.393000000     3.084000000
H    -5.610000000     1.467000000     1.673000000
O    -2.054000000    -3.469000000     2.463000000
H    -1.854000000    -4.402000000     2.536000000
H    -2.234000000    -3.191000000     3.361000000
O    -1.092000000     4.423000000     0.456000000
H    -1.294000000     5.180000000    -0.094000000
H    -1.613000000     3.712000000     0.084000000
O     4.258000000    -4.962000000    -4.185000000
H     3.803000000    -4.703000000    -4.987000000
H     3.679000000    -4.676000000    -3.479000000
O     0.341000000     3.787000000     5.081000000
H     0.409000000     2.958000000     4.606000000
H    -0.554000000     4.084000000     4.917000000
O    -0.490000000    -1.885000000     6.795000000
H    -1.011000000    -1.902000000     5.992000000
H    -0.244000000    -0.966000000     6.902000000
O    -0.377000000     3.475000000    -3.514000000
H     0.154000000     4.261000000    -3.640000000
H     0.256000000     2.757000000    -3.506000000
O     1.627000000     1.436000000    -3.912000000
H     1.817000000     1.957000000    -4.692000000
H     1.820000000     0.535000000    -4.173000000
O    -1.942000000    -3.200000000    -4.700000000
H    -1.278000000    -2.513000000    -4.755000000
H    -1.603000000    -3.906000000    -5.251000000
O    -1.171000000     1.613000000    -6.924000000
H    -1.647000000     0.832000000    -7.204000000
H    -1.445000000     2.294000000    -7.539000000
O     4.686000000     4.029000000     2.806000000
H     3.769000000     3.762000000     2.752000000
H     4.681000000     4.955000000     2.565000000
O    -4.255000000    -0.219000000    -6.488000000
H    -3.649000000    -0.559000000    -5.831000000
H    -4.945000000    -0.880000000    -6.543000000
O     0.178000000    -5.796000000    -3.079000000
H    -0.082000000    -6.667000000    -2.782000000
H    -0.566000000    -5.235000000    -2.860000000
O     3.735000000     1.725000000    -2.462000000
H     3.883000000     0.792000000    -2.311000000
H     2.898000000     1.763000000    -2.926000000
