161
-3023.50317
C     0.672000000    -0.624000000     1.141000000
H     1.059000000    -1.337000000     1.865000000
C     0.898000000    -0.946000000    -0.242000000
H     1.758000000    -1.573000000    -0.467000000
C     0.215000000    -0.315000000    -1.162000000
C     0.422000000    -0.608000000    -2.619000000
H     0.777000000     0.261000000    -3.176000000
H     1.113000000    -1.452000000    -2.667000000
H    -0.565000000    -0.919000000    -2.968000000
C    -0.768000000     0.596000000    -0.854000000
H    -1.487000000     0.955000000    -1.586000000
C    -0.911000000     1.031000000     0.490000000
H    -1.695000000     1.752000000     0.709000000
C    -0.138000000     0.457000000     1.508000000
C    -0.344000000     0.844000000     2.970000000
O    -1.366000000     1.504000000     3.248000000
O     0.362000000     0.367000000     3.816000000
O    -5.922000000     1.501000000    -4.524000000
H    -5.859000000     1.592000000    -5.475000000
H    -5.125000000     1.034000000    -4.274000000
O     0.926000000    -2.124000000     4.795000000
H     0.272000000    -2.216000000     5.489000000
H     0.720000000    -1.285000000     4.383000000
O    -1.574000000     4.820000000     7.409000000
H    -1.707000000     4.313000000     6.608000000
H    -2.012000000     5.655000000     7.240000000
O    -3.186000000    -0.504000000     5.217000000
H    -3.438000000    -0.837000000     4.356000000
H    -3.077000000     0.438000000     5.086000000
O    -1.310000000    -6.171000000     3.019000000
H    -0.676000000    -5.468000000     2.873000000
H    -2.087000000    -5.898000000     2.531000000
O    -0.744000000     4.334000000     0.017000000
H     0.132000000     4.107000000    -0.294000000
H    -1.335000000     3.835000000    -0.547000000
O    -2.650000000     3.196000000    -4.295000000
H    -3.015000000     2.420000000    -4.719000000
H    -3.400000000     3.779000000    -4.174000000
O    -3.931000000     2.791000000     7.036000000
H    -4.504000000     2.478000000     6.336000000
H    -3.066000000     2.846000000     6.630000000
O     4.312000000     1.282000000     7.293000000
H     3.783000000     0.669000000     6.782000000
H     4.031000000     2.147000000     6.994000000
O     0.362000000    -4.211000000     2.378000000
H    -0.103000000    -3.487000000     1.959000000
H     0.640000000    -3.860000000     3.223000000
O    -0.481000000    -3.967000000    -2.955000000
H    -0.848000000    -3.451000000    -2.237000000
H    -0.865000000    -3.586000000    -3.744000000
O    -3.798000000    -4.322000000    -2.468000000
H    -3.772000000    -4.053000000    -3.387000000
H    -3.245000000    -3.684000000    -2.017000000
O     2.842000000    -0.324000000     5.668000000
H     2.652000000    -0.671000000     4.796000000
H     2.645000000    -1.048000000     6.262000000
O     3.588000000    -0.295000000    -4.203000000
H     3.929000000    -0.857000000    -3.508000000
H     4.093000000    -0.540000000    -4.979000000
O    -5.408000000     3.619000000    -1.040000000
H    -5.621000000     4.324000000    -0.428000000
H    -5.517000000     4.012000000    -1.906000000
O     2.808000000     1.570000000     3.562000000
H     3.449000000     1.204000000     4.172000000
H     2.000000000     1.091000000     3.748000000
O     3.399000000     4.591000000    -4.725000000
H     4.230000000     4.362000000    -5.140000000
H     3.142000000     3.800000000    -4.251000000
O    -3.592000000    -3.580000000    -4.887000000
H    -4.203000000    -3.164000000    -5.495000000
H    -2.751000000    -3.161000000    -5.068000000
O     1.768000000    -4.741000000    -5.500000000
H     0.945000000    -5.154000000    -5.761000000
H     2.438000000    -5.203000000    -6.004000000
O    -1.793000000    -2.883000000    -1.013000000
H    -1.736000000    -2.987000000    -0.063000000
H    -2.479000000    -2.228000000    -1.142000000
O     5.189000000    -2.533000000     0.233000000
H     5.971000000    -3.076000000     0.137000000
H     5.002000000    -2.546000000     1.172000000
O    -1.832000000    -2.343000000     1.652000000
H    -2.720000000    -2.338000000     2.009000000
H    -1.597000000    -1.417000000     1.583000000
O    -3.350000000    -0.053000000     2.337000000
H    -3.760000000     0.233000000     1.521000000
H    -2.775000000     0.672000000     2.584000000
O    -6.137000000     3.850000000     3.273000000
H    -6.301000000     4.574000000     2.668000000
H    -5.272000000     3.524000000     3.027000000
O     3.285000000    -1.744000000     2.908000000
H     4.173000000    -1.694000000     3.263000000
H     3.069000000    -2.676000000     2.933000000
O     0.050000000     2.897000000    -4.134000000
H    -0.903000000     2.952000000    -4.194000000
H     0.299000000     2.290000000    -4.832000000
O     2.147000000    -4.357000000    -3.042000000
H     2.096000000    -4.392000000    -3.997000000
H     1.240000000    -4.449000000    -2.750000000
O     1.667000000    -6.177000000     0.993000000
H     1.319000000    -5.389000000     1.410000000
H     0.896000000    -6.623000000     0.642000000
O    -0.185000000     0.714000000     6.537000000
H     0.056000000     0.625000000     5.615000000
H     0.592000000     0.426000000     7.016000000
O     4.401000000    -2.503000000    -2.538000000
H     3.641000000    -3.083000000    -2.563000000
H     4.767000000    -2.624000000    -1.661000000
O     1.689000000     3.995000000    -1.552000000
H     1.723000000     4.849000000    -1.983000000
H     2.068000000     3.390000000    -2.191000000
O    -3.701000000     3.513000000     1.820000000
H    -2.930000000     3.126000000     2.236000000
H    -3.351000000     3.992000000     1.068000000
O     1.546000000    -1.440000000    -6.425000000
H     2.171000000    -1.661000000    -5.734000000
H     2.088000000    -1.290000000    -7.199000000
O    -3.078000000     0.553000000    -5.345000000
H    -3.297000000     0.237000000    -6.222000000
H    -2.124000000     0.628000000    -5.349000000
O    -4.157000000    -1.512000000    -1.042000000
H    -4.409000000    -0.730000000    -0.552000000
H    -4.731000000    -1.509000000    -1.808000000
O    -1.633000000     2.899000000     5.398000000
H    -1.078000000     2.163000000     5.656000000
H    -1.744000000     2.795000000     4.453000000
O    -5.157000000    -1.001000000    -3.694000000
H    -5.128000000    -1.939000000    -3.885000000
H    -4.794000000    -0.586000000    -4.476000000
O    -5.289000000     1.271000000     0.131000000
H    -6.208000000     1.062000000    -0.036000000
H    -5.216000000     2.205000000    -0.066000000
O    -2.837000000     3.513000000    -1.571000000
H    -3.784000000     3.466000000    -1.438000000
H    -2.706000000     3.201000000    -2.466000000
O    -1.187000000     4.904000000     2.627000000
H    -0.745000000     4.152000000     3.020000000
H    -1.030000000     4.811000000     1.688000000
O    -1.424000000    -2.427000000     6.333000000
H    -1.860000000    -1.722000000     5.857000000
H    -2.058000000    -2.695000000     6.999000000
O     4.522000000     0.108000000     0.229000000
H     4.501000000    -0.792000000    -0.098000000
H     3.983000000     0.088000000     1.020000000
O    -3.520000000     5.774000000     3.991000000
H    -3.972000000     6.398000000     3.423000000
H    -2.822000000     5.414000000     3.443000000
O    -0.263000000     0.314000000    -5.758000000
H    -0.245000000     0.897000000    -6.516000000
H     0.469000000    -0.287000000    -5.900000000
O    -1.277000000    -2.245000000    -5.220000000
H    -1.541000000    -2.144000000    -6.135000000
H    -0.878000000    -1.405000000    -4.992000000
O     1.756000000     3.202000000     1.717000000
H     2.003000000     2.396000000     2.169000000
H     2.106000000     3.099000000     0.832000000
O     4.486000000     3.887000000     2.846000000
H     3.949000000     3.134000000     3.094000000
H     4.188000000     4.114000000     1.965000000
O     2.993000000     2.057000000    -3.226000000
H     3.260000000     1.275000000    -3.709000000
H     2.157000000     1.817000000    -2.825000000
