161
-3029.36830
C     1.198000000     0.063000000     0.819000000
H     1.935000000     0.036000000     1.618000000
C     0.747000000    -1.073000000     0.243000000
H     1.103000000    -2.053000000     0.552000000
C    -0.347000000    -0.977000000    -0.608000000
C    -1.152000000    -2.261000000    -0.817000000
H    -1.109000000    -2.609000000    -1.851000000
H    -0.839000000    -3.105000000    -0.199000000
H    -2.211000000    -2.195000000    -0.562000000
C    -0.911000000     0.234000000    -0.920000000
H    -1.772000000     0.317000000    -1.579000000
C    -0.341000000     1.392000000    -0.420000000
H    -0.797000000     2.328000000    -0.734000000
C     0.718000000     1.286000000     0.458000000
C     1.104000000     2.550000000     1.169000000
O     1.098000000     3.601000000     0.542000000
O     1.571000000     2.468000000     2.289000000
O     1.272000000     7.587000000    -2.434000000
H     0.585000000     7.849000000    -3.046000000
H     0.819000000     7.059000000    -1.776000000
O    -6.880000000    -0.920000000    -0.166000000
H    -7.368000000    -1.742000000    -0.216000000
H    -6.127000000    -1.053000000    -0.742000000
O     1.201000000     1.136000000     4.839000000
H     1.102000000     1.466000000     3.946000000
H     0.634000000     1.698000000     5.366000000
O     0.478000000     6.867000000     3.672000000
H     1.174000000     6.210000000     3.651000000
H     0.761000000     7.536000000     3.049000000
O    -3.310000000     1.064000000     3.219000000
H    -3.782000000     0.543000000     2.569000000
H    -3.005000000     1.831000000     2.734000000
O     1.665000000     0.617000000    -2.935000000
H     0.993000000     0.235000000    -2.370000000
H     1.682000000     1.543000000    -2.693000000
O     0.563000000    -1.405000000    -5.338000000
H     0.965000000    -0.708000000    -4.819000000
H    -0.354000000    -1.409000000    -5.064000000
O    -2.388000000     2.736000000    -5.352000000
H    -2.003000000     1.953000000    -4.960000000
H    -3.127000000     2.951000000    -4.783000000
O     1.639000000     3.502000000    -2.157000000
H     0.890000000     3.964000000    -2.532000000
H     1.422000000     3.406000000    -1.230000000
O    -0.634000000     4.351000000     3.018000000
H     0.031000000     3.747000000     2.688000000
H    -0.249000000     5.219000000     2.898000000
O     6.023000000     1.166000000    -0.240000000
H     6.526000000     0.968000000     0.549000000
H     5.554000000     1.974000000    -0.030000000
O    -0.994000000    -5.057000000    -2.787000000
H    -1.291000000    -4.302000000    -2.279000000
H    -1.593000000    -5.762000000    -2.541000000
O     5.477000000    -3.961000000    -1.239000000
H     4.603000000    -4.195000000    -1.551000000
H     5.346000000    -3.149000000    -0.748000000
O    -0.070000000     5.971000000     0.206000000
H     0.566000000     6.595000000     0.557000000
H     0.338000000     5.115000000     0.335000000
O    -2.910000000     3.504000000     1.342000000
H    -3.693000000     4.039000000     1.471000000
H    -2.208000000     4.000000000     1.762000000
O    -4.695000000    -3.435000000    -4.484000000
H    -5.474000000    -3.873000000    -4.827000000
H    -4.983000000    -3.048000000    -3.657000000
O    -2.398000000     6.643000000     1.557000000
H    -2.552000000     7.147000000     0.758000000
H    -1.486000000     6.362000000     1.490000000
O    -0.557000000    -1.801000000     3.839000000
H    -1.400000000    -2.207000000     4.043000000
H    -0.779000000    -0.909000000     3.574000000
O    -3.009000000    -6.536000000    -2.034000000
H    -3.408000000    -5.711000000    -1.756000000
H    -3.033000000    -7.088000000    -1.252000000
O     2.292000000     5.183000000     2.670000000
H     3.169000000     5.446000000     2.391000000
H     2.098000000     4.404000000     2.148000000
O    -1.446000000    -6.075000000     0.711000000
H    -1.938000000    -5.330000000     0.366000000
H    -1.730000000    -6.148000000     1.622000000
O     3.128000000     0.284000000     6.781000000
H     3.242000000    -0.653000000     6.623000000
H     2.671000000     0.604000000     6.003000000
O     2.396000000    -1.287000000     4.393000000
H     1.568000000    -1.746000000     4.251000000
H     2.170000000    -0.359000000     4.335000000
O    -6.147000000    -3.347000000     2.359000000
H    -5.244000000    -3.597000000     2.555000000
H    -6.117000000    -2.395000000     2.263000000
O     2.468000000    -2.524000000    -1.871000000
H     1.760000000    -2.634000000    -1.237000000
H     2.995000000    -1.806000000    -1.521000000
O     4.230000000     3.564000000     0.510000000
H     4.718000000     4.385000000     0.561000000
H     3.317000000     3.833000000     0.403000000
O    -3.880000000    -4.499000000    -0.439000000
H    -3.618000000    -3.591000000    -0.590000000
H    -4.820000000    -4.452000000    -0.266000000
O     4.333000000    -1.150000000    -0.249000000
H     4.184000000    -1.400000000     0.663000000
H     4.939000000    -0.411000000    -0.199000000
O    -4.400000000     2.834000000    -3.226000000
H    -4.998000000     2.086000000    -3.221000000
H    -4.347000000     3.104000000    -2.310000000
O     3.082000000    -5.400000000    -2.179000000
H     3.079000000    -5.370000000    -3.136000000
H     2.455000000    -4.725000000    -1.917000000
O    -4.196000000    -0.488000000    -1.768000000
H    -4.831000000    -0.285000000    -2.455000000
H    -4.199000000     0.285000000    -1.203000000
O    -1.995000000     6.473000000    -1.839000000
H    -1.498000000     7.081000000    -1.292000000
H    -2.775000000     6.965000000    -2.096000000
O     3.181000000     5.747000000    -1.312000000
H     2.762000000     4.943000000    -1.616000000
H     2.643000000     6.450000000    -1.675000000
O    -0.930000000     4.128000000    -3.073000000
H    -1.449000000     4.742000000    -2.555000000
H    -1.343000000     4.134000000    -3.937000000
O     3.998000000     2.472000000     3.346000000
H     4.517000000     2.350000000     2.551000000
H     3.095000000     2.537000000     3.036000000
O    -4.125000000     1.589000000     0.063000000
H    -4.948000000     1.994000000     0.337000000
H    -3.457000000     2.244000000     0.265000000
O     5.886000000     5.191000000    -1.483000000
H     4.929000000     5.223000000    -1.467000000
H     6.091000000     4.326000000    -1.837000000
O     2.910000000    -4.178000000     3.385000000
H     2.956000000    -4.874000000     2.731000000
H     2.196000000    -4.441000000     3.965000000
O    -0.969000000     3.146000000     5.606000000
H    -0.779000000     3.971000000     6.054000000
H    -0.890000000     3.355000000     4.676000000
O     3.457000000     5.569000000     5.497000000
H     2.874000000     5.510000000     4.740000000
H     4.320000000     5.743000000     5.121000000
O     1.116000000    -4.815000000     0.121000000
H     0.228000000    -4.774000000     0.476000000
H     1.641000000    -5.183000000     0.831000000
O    -3.086000000    -2.117000000    -6.020000000
H    -3.669000000    -1.927000000    -6.754000000
H    -3.601000000    -2.684000000    -5.446000000
O     0.565000000    -5.346000000     4.072000000
H     0.370000000    -6.124000000     4.594000000
H    -0.279000000    -5.090000000     3.699000000
O     2.362000000    -3.188000000    -4.421000000
H     1.753000000    -2.605000000    -4.873000000
H     2.399000000    -2.850000000    -3.527000000
O    -1.845000000    -0.537000000    -4.234000000
H    -2.578000000    -0.416000000    -3.630000000
H    -2.211000000    -1.051000000    -4.954000000
O     0.602000000    -5.445000000    -5.142000000
H     1.225000000    -4.722000000    -5.070000000
H    -0.054000000    -5.264000000    -4.470000000
O     6.013000000     1.970000000     5.268000000
H     5.532000000     1.801000000     6.078000000
H     5.333000000     2.154000000     4.619000000
O     4.130000000    -1.867000000     2.299000000
H     3.451000000    -1.529000000     2.882000000
H     4.012000000    -2.817000000     2.320000000
