161
-3042.47968
C     1.258000000    -0.409000000     0.556000000
H     2.103000000    -0.766000000     1.140000000
C     0.315000000    -1.269000000     0.095000000
H     0.471000000    -2.345000000     0.108000000
C    -0.900000000    -0.723000000    -0.393000000
C    -1.980000000    -1.712000000    -0.776000000
H    -1.997000000    -2.648000000    -0.213000000
H    -2.905000000    -1.145000000    -0.653000000
H    -1.941000000    -1.930000000    -1.845000000
C    -1.009000000     0.593000000    -0.602000000
H    -1.895000000     1.000000000    -1.082000000
C    -0.046000000     1.462000000    -0.062000000
H    -0.127000000     2.541000000    -0.171000000
C     1.097000000     0.940000000     0.560000000
C     2.224000000     1.904000000     0.998000000
O     2.158000000     3.123000000     0.810000000
O     3.175000000     1.381000000     1.532000000
O     1.423000000     6.438000000    -3.083000000
H     1.967000000     5.871000000    -3.628000000
H     0.967000000     5.837000000    -2.493000000
O    -0.092000000    -2.410000000     4.072000000
H    -0.085000000    -2.892000000     4.899000000
H    -0.003000000    -3.085000000     3.400000000
O     7.160000000    -1.811000000     2.275000000
H     6.370000000    -1.271000000     2.246000000
H     7.871000000    -1.187000000     2.420000000
O     2.924000000    -1.302000000     6.006000000
H     2.067000000    -0.877000000     5.986000000
H     3.105000000    -1.520000000     5.092000000
O     0.762000000    -2.458000000    -3.454000000
H     1.048000000    -1.935000000    -2.705000000
H     0.000000000    -1.990000000    -3.796000000
O     3.419000000     6.797000000     1.204000000
H     3.935000000     7.599000000     1.119000000
H     2.527000000     7.102000000     1.369000000
O    -0.998000000    -1.357000000    -5.331000000
H    -0.949000000    -1.858000000    -6.145000000
H    -1.936000000    -1.241000000    -5.178000000
O     2.397000000     0.981000000    -2.483000000
H     3.194000000     1.411000000    -2.175000000
H     1.841000000     0.921000000    -1.706000000
O    -0.357000000     2.364000000     3.962000000
H    -0.554000000     3.167000000     4.444000000
H     0.343000000     2.613000000     3.359000000
O     4.511000000    -0.804000000     2.138000000
H     4.879000000    -0.611000000     3.001000000
H     4.026000000    -0.013000000     1.903000000
O    -6.285000000     2.081000000    -2.689000000
H    -5.876000000     1.216000000    -2.687000000
H    -6.245000000     2.366000000    -1.776000000
O     3.197000000     5.055000000    -0.733000000
H     3.667000000     5.728000000    -0.240000000
H     2.986000000     4.385000000    -0.082000000
O    -2.054000000     0.224000000     3.497000000
H    -1.450000000    -0.430000000     3.146000000
H    -1.488000000     0.880000000     3.904000000
O     0.949000000    -4.498000000    -1.671000000
H     0.508000000    -3.958000000    -2.327000000
H     0.238000000    -4.943000000    -1.210000000
O     0.570000000     5.044000000     2.276000000
H     0.586000000     5.917000000     1.883000000
H     1.050000000     4.494000000     1.657000000
O    -3.938000000    -5.738000000     0.942000000
H    -4.301000000    -5.002000000     1.435000000
H    -3.100000000    -5.920000000     1.366000000
O    -2.583000000     5.732000000     1.411000000
H    -2.040000000     6.112000000     2.101000000
H    -3.110000000     6.463000000     1.090000000
O    -6.308000000    -3.921000000    -0.514000000
H    -5.756000000    -3.644000000     0.217000000
H    -6.590000000    -4.806000000    -0.280000000
O    -5.288000000    -0.607000000    -2.729000000
H    -5.389000000    -1.480000000    -3.109000000
H    -5.454000000    -0.731000000    -1.795000000
O     3.321000000     5.240000000     3.805000000
H     3.266000000     5.913000000     4.484000000
H     2.515000000     5.344000000     3.299000000
O     7.106000000     2.151000000     3.245000000
H     8.043000000     2.332000000     3.317000000
H     6.689000000     3.009000000     3.317000000
O     5.831000000     0.066000000     4.300000000
H     6.066000000     0.276000000     5.204000000
H     6.357000000     0.665000000     3.771000000
O     0.478000000    -0.113000000     5.596000000
H     1.106000000     0.379000000     5.066000000
H     0.145000000    -0.789000000     5.005000000
O     4.691000000    -2.113000000    -1.078000000
H     4.423000000    -1.332000000    -0.594000000
H     5.540000000    -1.882000000    -1.455000000
O     6.978000000     4.569000000     0.384000000
H     6.870000000     4.415000000    -0.555000000
H     6.088000000     4.533000000     0.736000000
O     4.616000000     3.877000000     1.680000000
H     4.344000000     4.538000000     2.316000000
H     3.851000000     3.312000000     1.580000000
O    -4.254000000     0.948000000     2.076000000
H    -4.030000000     1.829000000     1.776000000
H    -3.562000000     0.723000000     2.698000000
O     3.385000000    -3.253000000     1.683000000
H     3.402000000    -3.156000000     0.731000000
H     3.664000000    -2.400000000     2.016000000
O    -3.573000000     0.262000000    -5.366000000
H    -4.073000000     0.773000000    -6.003000000
H    -4.236000000    -0.114000000    -4.787000000
O     3.896000000    -4.536000000    -1.268000000
H     4.335000000    -3.689000000    -1.184000000
H     3.015000000    -4.320000000    -1.573000000
O    -2.108000000     2.354000000    -3.483000000
H    -2.329000000     1.611000000    -4.045000000
H    -1.204000000     2.567000000    -3.713000000
O     4.009000000    -4.241000000     4.136000000
H     3.475000000    -5.036000000     4.116000000
H     3.907000000    -3.862000000     3.263000000
O     1.541000000     3.940000000    -3.915000000
H     1.520000000     3.011000000    -3.687000000
H     1.443000000     3.956000000    -4.867000000
O    -6.188000000    -3.130000000    -3.439000000
H    -6.169000000    -3.365000000    -2.511000000
H    -6.274000000    -3.966000000    -3.896000000
O     4.183000000     4.676000000    -3.360000000
H     3.594000000     4.777000000    -2.612000000
H     3.743000000     4.043000000    -3.927000000
O     0.219000000     4.949000000    -0.950000000
H     0.410000000     4.244000000    -1.569000000
H     1.032000000     5.064000000    -0.459000000
O     2.415000000     0.852000000     4.249000000
H     2.536000000     0.845000000     3.300000000
H     2.975000000     1.564000000     4.558000000
O    -1.595000000     6.683000000    -1.831000000
H    -0.921000000     6.025000000    -1.661000000
H    -2.374000000     6.176000000    -2.058000000
O    -5.730000000    -0.369000000     0.097000000
H    -5.236000000    -0.036000000     0.846000000
H    -6.635000000    -0.112000000     0.275000000
O     4.892000000     0.933000000    -0.333000000
H     5.799000000     0.910000000    -0.029000000
H     4.386000000     1.175000000     0.442000000
O     1.006000000    -4.596000000     2.202000000
H     1.364000000    -5.320000000     2.715000000
H     1.727000000    -4.324000000     1.634000000
O    -2.916000000     4.946000000    -4.147000000
H    -3.800000000     4.731000000    -4.446000000
H    -2.586000000     4.130000000    -3.769000000
O     7.675000000     1.011000000     0.534000000
H     8.185000000     0.404000000     1.071000000
H     7.492000000     1.749000000     1.115000000
O     3.958000000     2.985000000     5.332000000
H     4.005000000     3.759000000     4.771000000
H     4.628000000     3.133000000     6.000000000
O    -1.550000000    -5.487000000    -0.772000000
H    -1.182000000    -6.017000000    -0.066000000
H    -2.497000000    -5.543000000    -0.645000000
O    -4.031000000     3.556000000     0.815000000
H    -4.466000000     3.933000000     0.050000000
H    -3.404000000     4.226000000     1.087000000
O    -4.523000000    -3.241000000     1.593000000
H    -4.553000000    -2.442000000     1.066000000
H    -4.781000000    -2.959000000     2.471000000
O    -0.994000000    -6.646000000     2.459000000
H    -1.017000000    -6.693000000     3.415000000
H    -0.398000000    -5.922000000     2.269000000
