161
-3061.31444
C     1.527000000    -0.056000000     0.211000000
H     2.605000000     0.040000000     0.109000000
C     0.814000000    -0.536000000    -0.892000000
H     1.271000000    -0.879000000    -1.816000000
C    -0.589000000    -0.574000000    -0.930000000
C    -1.381000000    -1.030000000    -2.185000000
H    -1.317000000    -2.120000000    -2.219000000
H    -2.426000000    -0.747000000    -2.044000000
H    -1.032000000    -0.539000000    -3.096000000
C    -1.312000000    -0.059000000     0.173000000
H    -2.394000000     0.052000000     0.187000000
C    -0.599000000     0.572000000     1.205000000
H    -1.165000000     0.991000000     2.032000000
C     0.832000000     0.564000000     1.226000000
C     1.508000000     1.255000000     2.378000000
O     1.070000000     2.286000000     2.843000000
O     2.586000000     0.772000000     2.818000000
O    -2.718000000     2.419000000    -5.380000000
H    -2.860000000     2.691000000    -4.473000000
H    -2.925000000     3.197000000    -5.898000000
O     2.070000000     3.743000000     0.350000000
H     2.893000000     3.613000000    -0.121000000
H     2.266000000     3.482000000     1.250000000
O    -4.286000000    -2.025000000     0.674000000
H    -4.454000000    -1.084000000     0.722000000
H    -4.202000000    -2.300000000     1.587000000
O    -0.052000000     4.544000000     6.416000000
H     0.121000000     5.468000000     6.236000000
H     0.794000000     4.113000000     6.290000000
O    -2.934000000     4.630000000    -0.328000000
H    -2.702000000     5.462000000     0.085000000
H    -2.149000000     4.376000000    -0.812000000
O     3.378000000    -0.699000000     5.200000000
H     3.240000000     0.198000000     4.896000000
H     3.821000000    -1.134000000     4.471000000
O    -0.968000000    -4.181000000    -3.453000000
H    -0.292000000    -4.348000000    -2.797000000
H    -0.482000000    -4.003000000    -4.258000000
O    -4.539000000     0.958000000    -1.675000000
H    -3.776000000     1.427000000    -2.012000000
H    -4.798000000     1.451000000    -0.896000000
O    -0.007000000     6.934000000     2.592000000
H    -0.232000000     6.872000000     3.520000000
H     0.011000000     6.027000000     2.288000000
O    -2.176000000    -2.340000000    -5.088000000
H    -1.668000000    -2.806000000    -4.424000000
H    -2.571000000    -3.033000000    -5.617000000
O     0.264000000     2.043000000    -2.760000000
H     1.133000000     2.106000000    -3.157000000
H     0.254000000     1.183000000    -2.340000000
O    -1.804000000     0.210000000     6.443000000
H    -1.561000000     0.972000000     5.917000000
H    -1.098000000     0.125000000     7.083000000
O     5.097000000    -1.871000000     3.624000000
H     4.565000000    -2.268000000     2.934000000
H     5.719000000    -1.314000000     3.155000000
O    -5.417000000    -1.548000000    -2.006000000
H    -5.201000000    -0.621000000    -1.909000000
H    -5.066000000    -1.960000000    -1.216000000
O     4.829000000     1.690000000     1.873000000
H     3.961000000     1.348000000     2.086000000
H     4.731000000     2.641000000     1.930000000
O     2.425000000     2.711000000     7.425000000
H     2.823000000     2.479000000     6.586000000
H     2.986000000     3.403000000     7.774000000
O    -1.710000000    -1.800000000     4.634000000
H    -1.659000000    -1.284000000     5.438000000
H    -2.561000000    -2.237000000     4.683000000
O     4.008000000     4.218000000     2.499000000
H     4.072000000     5.027000000     1.991000000
H     3.988000000     4.508000000     3.411000000
O     1.543000000    -4.436000000    -1.367000000
H     0.774000000    -4.536000000    -0.805000000
H     1.636000000    -5.284000000    -1.800000000
O     5.864000000    -3.106000000     1.119000000
H     6.594000000    -2.754000000     0.609000000
H     5.082000000    -2.780000000     0.673000000
O    -0.213000000     4.375000000     2.258000000
H     0.334000000     3.647000000     2.554000000
H    -0.845000000     3.973000000     1.661000000
O    -2.948000000     4.228000000     3.749000000
H    -2.253000000     4.713000000     3.304000000
H    -2.537000000     3.404000000     4.008000000
O    -2.796000000    -4.130000000    -0.161000000
H    -3.290000000    -3.339000000     0.052000000
H    -3.452000000    -4.826000000    -0.176000000
O     3.242000000     2.304000000     5.006000000
H     3.896000000     2.927000000     4.692000000
H     2.757000000     2.049000000     4.221000000
O    -0.409000000    -4.141000000     0.954000000
H    -0.246000000    -3.265000000     1.304000000
H    -1.257000000    -4.069000000     0.515000000
O     3.517000000    -2.206000000    -1.933000000
H     4.227000000    -2.834000000    -1.799000000
H     2.718000000    -2.722000000    -1.834000000
O     3.169000000    -2.305000000     1.587000000
H     2.878000000    -1.414000000     1.393000000
H     2.763000000    -2.511000000     2.429000000
O     1.017000000    -3.786000000    -5.409000000
H     1.636000000    -4.280000000    -4.872000000
H     0.840000000    -4.356000000    -6.157000000
O     6.762000000     0.064000000     2.480000000
H     7.159000000     0.458000000     3.257000000
H     6.223000000     0.761000000     2.107000000
O    -2.619000000    -6.331000000    -2.449000000
H    -2.210000000    -5.767000000    -3.106000000
H    -2.612000000    -5.808000000    -1.648000000
O    -5.613000000     1.023000000     1.770000000
H    -5.306000000     0.578000000     2.560000000
H    -6.464000000     1.386000000     2.016000000
O    -5.905000000    -2.730000000    -4.441000000
H    -5.300000000    -2.127000000    -4.873000000
H    -6.071000000    -2.331000000    -3.587000000
O     3.891000000    -5.026000000     0.284000000
H     4.500000000    -5.352000000     0.947000000
H     3.810000000    -4.091000000     0.472000000
O    -2.566000000     2.877000000    -2.624000000
H    -1.652000000     2.778000000    -2.889000000
H    -2.652000000     3.804000000    -2.403000000
O     1.509000000    -2.582000000     3.828000000
H     0.993000000    -1.798000000     4.015000000
H     1.383000000    -3.140000000     4.596000000
O     2.952000000     2.417000000    -3.938000000
H     3.376000000     1.660000000    -3.533000000
H     3.581000000     3.130000000    -3.828000000
O     4.440000000     2.616000000    -0.661000000
H     4.373000000     1.957000000    -1.353000000
H     4.543000000     2.108000000     0.144000000
O    -3.558000000    -0.196000000    -6.141000000
H    -3.172000000    -0.860000000    -5.569000000
H    -3.260000000     0.637000000    -5.776000000
O    -0.282000000     4.132000000    -0.741000000
H    -0.284000000     3.368000000    -1.318000000
H     0.537000000     4.059000000    -0.250000000
O     4.200000000     0.454000000    -2.702000000
H     5.144000000     0.375000000    -2.565000000
H     3.876000000    -0.446000000    -2.668000000
O     6.840000000     0.298000000    -1.372000000
H     7.497000000     0.984000000    -1.258000000
H     6.834000000    -0.169000000    -0.536000000
O     0.085000000    -0.285000000    -8.219000000
H     0.248000000    -1.007000000    -8.826000000
H     0.321000000    -0.635000000    -7.360000000
O    -5.295000000     3.077000000    -0.252000000
H    -4.672000000     3.778000000    -0.058000000
H    -5.438000000     2.645000000     0.590000000
O     3.823000000    -0.513000000    -5.294000000
H     3.973000000    -1.448000000    -5.435000000
H     2.872000000    -0.415000000    -5.323000000
O     2.696000000    -3.019000000     6.408000000
H     3.493000000    -3.293000000     6.860000000
H     2.919000000    -2.173000000     6.019000000
O    -1.128000000     2.433000000     4.903000000
H    -0.875000000     3.143000000     5.493000000
H    -0.488000000     2.471000000     4.193000000
O     0.725000000    -1.030000000    -5.575000000
H    -0.197000000    -1.006000000    -5.320000000
H     0.966000000    -1.954000000    -5.515000000
O     1.509000000     6.862000000     0.490000000
H     1.252000000     7.226000000     1.337000000
H     1.277000000     5.935000000     0.548000000
