161
-2980.21723
C     0.055000000     0.211000000     1.437000000
H    -0.158000000     0.304000000     2.498000000
C    -0.319000000    -0.925000000     0.767000000
H    -0.477000000    -1.832000000     1.344000000
C    -0.361000000    -1.054000000    -0.582000000
C    -0.877000000    -2.388000000    -1.174000000
H    -0.154000000    -3.203000000    -1.261000000
H    -1.737000000    -2.764000000    -0.617000000
H    -1.196000000    -2.174000000    -2.196000000
C     0.013000000     0.099000000    -1.347000000
H     0.200000000    -0.012000000    -2.412000000
C     0.487000000     1.334000000    -0.707000000
H     0.899000000     2.131000000    -1.321000000
C     0.588000000     1.359000000     0.728000000
C     0.934000000     2.642000000     1.441000000
O     1.573000000     3.510000000     0.859000000
O     0.529000000     2.760000000     2.535000000
O    -0.684000000    -1.890000000     4.418000000
H    -1.555000000    -1.785000000     4.036000000
H    -0.641000000    -2.814000000     4.664000000
O    -0.345000000     6.580000000    -3.924000000
H    -0.742000000     6.292000000    -4.747000000
H    -0.086000000     5.769000000    -3.487000000
O     3.483000000    -5.622000000     1.110000000
H     3.178000000    -6.518000000     1.257000000
H     3.327000000    -5.467000000     0.178000000
O    -3.133000000    -1.340000000     3.376000000
H    -3.572000000    -0.526000000     3.623000000
H    -3.493000000    -1.997000000     3.972000000
O    -2.231000000     3.469000000     3.007000000
H    -2.595000000     3.594000000     2.130000000
H    -1.328000000     3.191000000     2.854000000
O    -5.851000000    -0.961000000    -0.925000000
H    -5.369000000    -1.312000000    -0.177000000
H    -6.338000000    -1.709000000    -1.269000000
O     0.795000000     3.088000000     5.293000000
H     0.379000000     2.289000000     5.615000000
H     0.830000000     2.974000000     4.343000000
O     5.946000000     1.515000000    -1.810000000
H     5.041000000     1.660000000    -1.533000000
H     6.198000000     2.331000000    -2.242000000
O    -3.707000000    -2.418000000    -4.746000000
H    -3.737000000    -1.589000000    -4.269000000
H    -3.812000000    -3.088000000    -4.071000000
O     3.471000000     3.013000000    -1.328000000
H     3.163000000     3.148000000    -0.432000000
H     3.942000000     3.818000000    -1.543000000
O    -2.182000000    -6.037000000    -4.218000000
H    -2.589000000    -6.146000000    -5.078000000
H    -2.828000000    -5.549000000    -3.708000000
O    -3.303000000     5.855000000     3.736000000
H    -2.918000000     5.008000000     3.510000000
H    -3.197000000     6.384000000     2.946000000
O    -0.054000000    -5.005000000     1.485000000
H     0.235000000    -4.574000000     2.290000000
H    -1.009000000    -4.991000000     1.535000000
O    -4.308000000     3.222000000     1.278000000
H    -3.715000000     2.619000000     0.829000000
H    -5.162000000     3.060000000     0.877000000
O     4.911000000    -2.598000000    -1.008000000
H     5.464000000    -3.376000000    -0.929000000
H     4.068000000    -2.933000000    -1.313000000
O    -3.852000000    -4.871000000     0.635000000
H    -4.143000000    -5.746000000     0.378000000
H    -3.484000000    -4.989000000     1.511000000
O     1.581000000     5.337000000    -0.870000000
H     1.661000000     4.693000000    -0.166000000
H     2.091000000     6.088000000    -0.567000000
O     0.629000000     5.906000000     2.651000000
H     1.239000000     5.980000000     3.386000000
H     0.763000000     5.019000000     2.317000000
O    -6.422000000    -3.756000000     1.274000000
H    -5.585000000    -3.300000000     1.186000000
H    -6.473000000    -4.316000000     0.499000000
O     2.057000000    -0.020000000    -6.215000000
H     1.645000000     0.796000000    -5.932000000
H     2.084000000    -0.561000000    -5.426000000
O     1.803000000     5.750000000     5.048000000
H     2.174000000     5.771000000     5.930000000
H     1.553000000     4.836000000     4.914000000
O     3.660000000     4.563000000     1.979000000
H     3.412000000     5.420000000     2.326000000
H     2.837000000     4.180000000     1.676000000
O    -2.468000000     1.792000000     5.463000000
H    -1.587000000     1.425000000     5.546000000
H    -2.512000000     2.107000000     4.560000000
O    -2.230000000    -7.691000000    -0.744000000
H    -1.578000000    -6.994000000    -0.822000000
H    -2.132000000    -8.011000000     0.153000000
O    -4.338000000    -2.147000000     0.808000000
H    -3.725000000    -2.835000000     0.547000000
H    -3.841000000    -1.601000000     1.416000000
O    -4.177000000    -4.607000000    -3.083000000
H    -5.045000000    -4.553000000    -3.485000000
H    -4.352000000    -4.675000000    -2.145000000
O     3.187000000     1.744000000     6.419000000
H     3.156000000     2.206000000     7.257000000
H     2.313000000     1.866000000     6.046000000
O     1.155000000    -2.434000000    -4.719000000
H     1.764000000    -2.657000000    -5.423000000
H     0.385000000    -2.086000000    -5.170000000
O    -2.010000000     6.314000000     1.417000000
H    -1.186000000     5.842000000     1.539000000
H    -2.337000000     6.010000000     0.571000000
O     4.240000000     1.392000000     3.770000000
H     3.944000000     1.634000000     4.648000000
H     3.678000000     0.658000000     3.521000000
O    -2.604000000     4.762000000    -1.059000000
H    -3.170000000     5.203000000    -1.693000000
H    -2.929000000     3.862000000    -1.035000000
O    -1.360000000    -1.599000000    -6.012000000
H    -1.027000000    -2.331000000    -6.531000000
H    -2.160000000    -1.936000000    -5.609000000
O    -1.075000000     5.122000000     6.355000000
H    -0.165000000     4.853000000     6.230000000
H    -1.584000000     4.329000000     6.191000000
O     5.925000000     2.985000000     2.693000000
H     5.321000000     3.669000000     2.405000000
H     5.410000000     2.451000000     3.299000000
O    -2.673000000     1.172000000     0.174000000
H    -2.478000000     1.455000000    -0.719000000
H    -1.900000000     0.675000000     0.443000000
O    -3.477000000     0.168000000    -3.794000000
H    -2.871000000     0.513000000    -4.449000000
H    -3.753000000     0.936000000    -3.295000000
O     2.361000000    -3.443000000    -1.789000000
H     1.658000000    -4.013000000    -1.476000000
H     1.926000000    -2.830000000    -2.381000000
O    -1.034000000     3.406000000    -6.245000000
H    -0.812000000     2.937000000    -5.441000000
H    -0.575000000     2.928000000    -6.936000000
O    -0.088000000     0.458000000     5.775000000
H    -0.117000000    -0.317000000     5.213000000
H    -0.216000000     0.117000000     6.660000000
O     1.096000000    -5.355000000    -3.319000000
H     1.724000000    -5.996000000    -3.652000000
H     0.996000000    -4.724000000    -4.032000000
O    -2.696000000    -5.194000000     3.103000000
H    -2.089000000    -4.771000000     3.710000000
H    -3.536000000    -5.191000000     3.562000000
O     2.797000000    -1.400000000     4.372000000
H     2.813000000    -2.286000000     4.010000000
H     2.020000000    -0.997000000     3.985000000
O    -0.049000000     1.880000000    -4.219000000
H    -0.164000000     2.291000000    -3.363000000
H     0.743000000     1.350000000    -4.126000000
O     0.471000000    -6.316000000    -0.988000000
H     0.287000000    -5.609000000    -0.369000000
H     0.716000000    -5.869000000    -1.797000000
O     2.661000000    -4.014000000     3.630000000
H     2.382000000    -4.614000000     4.322000000
H     2.449000000    -4.471000000     2.816000000
O    -0.613000000    -4.608000000     4.998000000
H    -1.186000000    -4.569000000     5.764000000
H     0.070000000    -5.233000000     5.242000000
O    -0.300000000     4.201000000    -2.372000000
H    -1.093000000     4.546000000    -1.962000000
H     0.410000000     4.482000000    -1.795000000
O     2.822000000     1.166000000    -3.489000000
H     2.872000000     1.757000000    -4.241000000
H     3.013000000     1.723000000    -2.735000000
