161
-3064.65245
C     1.138000000     0.628000000     0.743000000
H     1.975000000     1.073000000     1.275000000
C    -0.229000000     0.894000000     0.996000000
H    -0.574000000     1.641000000     1.705000000
C    -1.166000000     0.181000000     0.240000000
C    -2.596000000     0.281000000     0.709000000
H    -3.022000000     1.220000000     0.347000000
H    -3.194000000    -0.481000000     0.205000000
H    -2.754000000     0.240000000     1.788000000
C    -0.804000000    -0.683000000    -0.739000000
H    -1.604000000    -1.126000000    -1.327000000
C     0.548000000    -0.909000000    -1.078000000
H     0.837000000    -1.561000000    -1.898000000
C     1.509000000    -0.244000000    -0.342000000
C     2.944000000    -0.433000000    -0.711000000
O     3.161000000    -0.939000000    -1.774000000
O     3.827000000     0.215000000    -0.145000000
O     0.756000000     2.581000000    -1.771000000
H     1.514000000     2.626000000    -1.188000000
H     0.310000000     1.771000000    -1.523000000
O     4.725000000    -3.965000000     3.008000000
H     4.671000000    -4.866000000     2.690000000
H     5.061000000    -3.467000000     2.262000000
O     0.047000000    -4.217000000    -1.607000000
H    -0.493000000    -4.030000000    -2.375000000
H    -0.578000000    -4.482000000    -0.932000000
O    -4.235000000    -3.513000000     1.920000000
H    -3.784000000    -3.392000000     2.756000000
H    -3.999000000    -2.740000000     1.407000000
O    -5.714000000     1.470000000    -0.652000000
H    -5.677000000     0.764000000    -0.007000000
H    -5.780000000     1.021000000    -1.495000000
O    -1.720000000    -0.137000000     4.175000000
H    -2.222000000     0.678000000     4.157000000
H    -0.828000000     0.135000000     4.388000000
O    -5.944000000    -0.613000000     0.856000000
H    -5.715000000    -0.500000000     1.779000000
H    -6.640000000    -1.270000000     0.861000000
O    -4.459000000     3.151000000     1.199000000
H    -4.969000000     2.771000000     0.484000000
H    -3.699000000     3.543000000     0.769000000
O    -2.306000000    -4.395000000    -3.363000000
H    -3.175000000    -4.006000000    -3.261000000
H    -2.469000000    -5.238000000    -3.786000000
O    -0.841000000     0.328000000    -5.791000000
H    -0.571000000    -0.460000000    -5.319000000
H    -1.152000000     0.006000000    -6.637000000
O     1.650000000     2.843000000     3.885000000
H     1.589000000     1.888000000     3.892000000
H     0.952000000     3.132000000     4.473000000
O     4.578000000     3.070000000     4.813000000
H     4.180000000     2.894000000     3.961000000
H     5.427000000     2.629000000     4.777000000
O    -1.950000000    -5.263000000     0.590000000
H    -1.677000000    -4.485000000     1.076000000
H    -2.760000000    -5.541000000     1.017000000
O    -7.841000000     2.023000000     2.616000000
H    -8.665000000     1.803000000     3.051000000
H    -7.234000000     1.336000000     2.892000000
O     3.771000000    -4.344000000    -5.582000000
H     4.694000000    -4.584000000    -5.493000000
H     3.500000000    -4.100000000    -4.697000000
O     4.834000000     2.016000000     2.030000000
H     4.565000000     1.311000000     1.441000000
H     5.466000000     2.525000000     1.522000000
O     6.234000000     3.703000000     0.180000000
H     6.608000000     4.577000000     0.294000000
H     5.917000000     3.695000000    -0.723000000
O     2.993000000     4.428000000     1.579000000
H     2.505000000     4.083000000     2.327000000
H     3.901000000     4.462000000     1.881000000
O     7.905000000    -0.181000000     1.648000000
H     8.638000000     0.094000000     2.199000000
H     7.950000000     0.394000000     0.885000000
O     5.345000000     3.646000000    -2.287000000
H     4.425000000     3.625000000    -2.024000000
H     5.411000000     4.402000000    -2.870000000
O     1.062000000    -0.615000000     4.602000000
H     1.717000000    -0.749000000     3.916000000
H     1.571000000    -0.365000000     5.373000000
O    -5.212000000     2.296000000    -3.942000000
H    -4.591000000     2.090000000    -4.640000000
H    -4.992000000     1.688000000    -3.237000000
O    -2.119000000     1.582000000    -3.677000000
H    -1.558000000     1.181000000    -4.341000000
H    -2.209000000     0.910000000    -3.002000000
O     5.751000000    -1.872000000     1.133000000
H     5.172000000    -1.381000000     0.550000000
H     6.400000000    -1.231000000     1.422000000
O     7.359000000     1.251000000    -0.487000000
H     8.126000000     1.407000000    -1.038000000
H     7.004000000     2.124000000    -0.318000000
O    -0.905000000     2.306000000     4.916000000
H    -1.661000000     2.776000000     4.563000000
H    -1.006000000     2.368000000     5.866000000
O     5.848000000    -0.159000000    -2.502000000
H     4.934000000    -0.363000000    -2.300000000
H     6.194000000     0.215000000    -1.691000000
O    -0.505000000    -2.394000000    -4.619000000
H     0.206000000    -2.493000000    -5.252000000
H    -0.787000000    -3.289000000    -4.432000000
O     3.566000000    -0.874000000     3.311000000
H     4.291000000    -0.296000000     3.073000000
H     3.879000000    -1.752000000     3.093000000
O    -3.826000000     2.515000000     3.831000000
H    -4.180000000     2.881000000     3.020000000
H    -3.849000000     3.242000000     4.452000000
O     6.524000000    -2.741000000    -3.349000000
H     6.272000000    -1.819000000    -3.383000000
H     6.446000000    -2.977000000    -2.425000000
O    -5.407000000    -0.152000000     3.741000000
H    -5.370000000    -0.686000000     4.535000000
H    -4.905000000     0.634000000     3.958000000
O     1.711000000     2.187000000    -4.576000000
H     1.441000000     2.234000000    -3.659000000
H     2.039000000     1.294000000    -4.684000000
O     2.575000000    -0.485000000    -4.362000000
H     2.697000000    -1.427000000    -4.478000000
H     2.844000000    -0.318000000    -3.459000000
O     5.251000000     0.397000000    -5.139000000
H     5.607000000     0.348000000    -4.252000000
H     4.334000000     0.138000000    -5.044000000
O    -3.286000000    -1.284000000    -4.042000000
H    -3.832000000    -1.604000000    -4.760000000
H    -2.400000000    -1.268000000    -4.403000000
O     3.267000000     2.861000000    -0.722000000
H     3.604000000     1.989000000    -0.932000000
H     3.247000000     2.886000000     0.234000000
O     0.456000000     4.598000000     0.325000000
H     0.798000000     4.339000000    -0.531000000
H     1.230000000     4.655000000     0.885000000
O    -8.182000000     2.794000000    -0.881000000
H    -7.290000000     2.462000000    -0.984000000
H    -8.178000000     3.231000000    -0.029000000
O    -2.799000000    -2.917000000     4.358000000
H    -2.629000000    -2.035000000     4.028000000
H    -1.950000000    -3.357000000     4.315000000
O     6.565000000     1.316000000     4.145000000
H     7.241000000     0.680000000     4.380000000
H     6.744000000     1.527000000     3.229000000
O     2.819000000    -3.484000000    -3.034000000
H     2.989000000    -2.725000000    -2.476000000
H     2.957000000    -4.238000000    -2.461000000
O     7.087000000    -3.666000000    -0.660000000
H     6.403000000    -4.334000000    -0.710000000
H     6.776000000    -3.055000000     0.008000000
O    -2.511000000     4.746000000     0.251000000
H    -2.645000000     5.503000000     0.822000000
H    -1.562000000     4.701000000     0.133000000
O    -4.182000000     5.970000000    -1.619000000
H    -3.676000000     6.672000000    -2.028000000
H    -3.637000000     5.673000000    -0.891000000
O    -5.394000000    -0.151000000    -2.621000000
H    -4.541000000    -0.518000000    -2.853000000
H    -6.003000000    -0.884000000    -2.717000000
O     2.651000000    -5.975000000    -1.596000000
H     2.722000000    -6.901000000    -1.364000000
H     1.775000000    -5.721000000    -1.307000000
O    -1.302000000    -2.756000000     1.392000000
H    -0.975000000    -2.396000000     0.568000000
H    -1.237000000    -2.031000000     2.014000000
