161
-3056.92736
C     1.272000000     0.587000000    -0.421000000
H     2.189000000     1.152000000    -0.566000000
C     0.948000000     0.107000000     0.855000000
H     1.691000000     0.271000000     1.631000000
C    -0.273000000    -0.393000000     1.154000000
C    -0.625000000    -0.662000000     2.610000000
H     0.183000000    -0.848000000     3.321000000
H    -1.292000000     0.131000000     2.953000000
H    -1.130000000    -1.630000000     2.643000000
C    -1.205000000    -0.444000000     0.117000000
H    -2.158000000    -0.935000000     0.297000000
C    -0.881000000     0.036000000    -1.178000000
H    -1.673000000    -0.170000000    -1.893000000
C     0.395000000     0.477000000    -1.496000000
C     0.750000000     0.712000000    -2.926000000
O    -0.047000000     0.517000000    -3.825000000
O     1.851000000     1.097000000    -3.281000000
O     4.865000000    -0.368000000     3.641000000
H     5.446000000    -0.511000000     2.894000000
H     4.210000000    -1.063000000     3.571000000
O    -6.649000000     1.165000000    -2.065000000
H    -6.747000000     0.322000000    -2.507000000
H    -5.732000000     1.403000000    -2.205000000
O     0.238000000    -3.915000000     6.077000000
H     0.197000000    -3.033000000     6.447000000
H    -0.662000000    -4.108000000     5.815000000
O    -1.125000000    -6.324000000     3.955000000
H    -1.581000000    -6.654000000     3.180000000
H    -1.767000000    -5.762000000     4.389000000
O    -5.430000000    -4.672000000     2.565000000
H    -5.012000000    -3.848000000     2.313000000
H    -5.139000000    -5.300000000     1.904000000
O     2.203000000    -3.370000000    -3.441000000
H     2.077000000    -3.268000000    -2.497000000
H     1.360000000    -3.126000000    -3.823000000
O    -4.427000000    -1.761000000     4.483000000
H    -4.916000000    -0.983000000     4.216000000
H    -5.007000000    -2.207000000     5.101000000
O     1.663000000     4.383000000    -0.511000000
H     2.454000000     4.870000000    -0.277000000
H     1.827000000     4.074000000    -1.402000000
O    -1.035000000    -4.040000000    -3.015000000
H    -1.979000000    -3.890000000    -2.952000000
H    -0.735000000    -3.405000000    -3.666000000
O     4.641000000     3.300000000     0.312000000
H     5.594000000     3.247000000     0.382000000
H     4.362000000     3.695000000     1.138000000
O     5.348000000     1.640000000    -5.237000000
H     6.245000000     1.332000000    -5.363000000
H     5.071000000     1.241000000    -4.412000000
O     0.216000000     2.390000000     3.577000000
H    -0.333000000     2.413000000     2.793000000
H     0.134000000     3.266000000     3.954000000
O    -3.958000000    -2.051000000     1.785000000
H    -3.907000000    -1.915000000     2.731000000
H    -4.454000000    -1.299000000     1.461000000
O     4.151000000    -2.877000000    -5.214000000
H     4.177000000    -1.965000000    -5.505000000
H     3.315000000    -2.959000000    -4.757000000
O    -2.676000000    -4.391000000     5.114000000
H    -3.124000000    -4.848000000     5.825000000
H    -3.133000000    -3.553000000     5.041000000
O    -2.769000000    -6.259000000     1.662000000
H    -2.780000000    -5.325000000     1.452000000
H    -3.602000000    -6.414000000     2.108000000
O    -0.605000000     3.788000000     0.908000000
H     0.166000000     3.403000000     0.490000000
H    -1.128000000     4.126000000     0.181000000
O     5.197000000     2.858000000    -2.397000000
H     4.942000000     2.942000000    -1.479000000
H     5.898000000     3.500000000    -2.510000000
O    -2.972000000    -0.185000000    -5.758000000
H    -2.580000000     0.483000000    -6.321000000
H    -2.265000000    -0.444000000    -5.166000000
O     2.188000000     3.789000000    -3.072000000
H     1.842000000     2.898000000    -3.123000000
H     3.030000000     3.745000000    -3.526000000
O    -1.548000000     3.189000000    -1.614000000
H    -1.020000000     2.548000000    -1.138000000
H    -2.402000000     3.164000000    -1.184000000
O    -3.806000000    -3.737000000    -2.866000000
H    -4.306000000    -3.435000000    -3.624000000
H    -4.237000000    -3.328000000    -2.116000000
O    -3.845000000     1.296000000    -3.114000000
H    -3.236000000     1.961000000    -3.434000000
H    -3.959000000     0.700000000    -3.855000000
O    -2.386000000     1.283000000     5.308000000
H    -2.636000000     1.868000000     6.024000000
H    -1.607000000     1.690000000     4.928000000
O     1.014000000     0.536000000    -6.220000000
H     1.420000000     1.379000000    -6.419000000
H     0.655000000     0.645000000    -5.340000000
O     1.650000000    -2.512000000    -0.739000000
H     1.280000000    -3.023000000    -0.019000000
H     0.990000000    -1.844000000    -0.923000000
O     5.093000000    -3.268000000     2.198000000
H     5.984000000    -3.406000000     1.877000000
H     4.651000000    -2.803000000     1.488000000
O     3.763000000    -0.268000000    -6.449000000
H     4.194000000     0.496000000    -6.068000000
H     2.833000000    -0.136000000    -6.264000000
O    -2.198000000     1.817000000    -7.742000000
H    -2.379000000     2.671000000    -7.348000000
H    -1.262000000     1.679000000    -7.593000000
O    -1.630000000     2.535000000    -4.414000000
H    -1.352000000     3.261000000    -3.856000000
H    -1.072000000     1.803000000    -4.149000000
O    -5.473000000     0.407000000     1.318000000
H    -6.412000000     0.229000000     1.254000000
H    -5.344000000     0.689000000     2.224000000
O     4.122000000     3.897000000    -6.206000000
H     3.440000000     3.626000000    -6.821000000
H     4.562000000     3.082000000    -5.964000000
O     4.201000000    -1.488000000    -0.401000000
H     3.357000000    -1.912000000    -0.558000000
H     4.272000000    -0.832000000    -1.095000000
O    -4.408000000     2.391000000    -0.338000000
H    -4.838000000     1.672000000     0.126000000
H    -4.166000000     2.018000000    -1.185000000
O     0.400000000    -1.048000000     7.434000000
H    -0.521000000    -1.020000000     7.174000000
H     0.798000000    -0.303000000     6.983000000
O     3.796000000     2.112000000     4.484000000
H     4.614000000     1.744000000     4.149000000
H     3.149000000     1.420000000     4.350000000
O    -2.366000000     4.250000000    -6.340000000
H    -3.276000000     4.472000000    -6.142000000
H    -2.057000000     3.787000000    -5.561000000
O    -2.363000000    -1.128000000     6.385000000
H    -3.119000000    -1.587000000     6.019000000
H    -2.466000000    -0.223000000     6.090000000
O     2.621000000    -2.066000000     3.856000000
H     1.783000000    -2.313000000     4.247000000
H     2.891000000    -2.840000000     3.361000000
O     0.976000000    -4.181000000     3.033000000
H     0.690000000    -4.054000000     2.128000000
H     0.517000000    -4.970000000     3.320000000
O    -0.096000000    -2.105000000    -4.641000000
H     0.063000000    -2.039000000    -5.583000000
H     0.065000000    -1.222000000    -4.309000000
O    -0.378000000    -4.299000000     0.612000000
H    -0.056000000    -5.084000000     0.169000000
H    -1.331000000    -4.359000000     0.542000000
O    -4.745000000     0.873000000     3.909000000
H    -3.915000000     0.928000000     4.382000000
H    -5.301000000     1.533000000     4.323000000
O    -3.206000000    -3.975000000     0.207000000
H    -3.134000000    -3.754000000    -0.722000000
H    -3.582000000    -3.192000000     0.610000000
O     6.103000000    -1.657000000    -3.206000000
H     5.298000000    -1.138000000    -3.220000000
H     5.919000000    -2.367000000    -2.591000000
O    -5.080000000    -1.948000000    -1.133000000
H    -4.794000000    -1.068000000    -0.886000000
H    -5.916000000    -2.063000000    -0.681000000
O     1.222000000     0.805000000     5.658000000
H     1.662000000     1.580000000     6.008000000
H     1.059000000     1.016000000     4.739000000
O     4.361000000     0.360000000    -2.922000000
H     3.428000000     0.552000000    -3.015000000
H     4.735000000     1.162000000    -2.556000000
