161
-2981.30549
C     0.450000000     1.329000000     0.499000000
H     0.796000000     2.279000000     0.899000000
C    -0.321000000     0.377000000     1.248000000
H    -0.490000000     0.536000000     2.310000000
C    -0.607000000    -0.846000000     0.695000000
C    -1.210000000    -1.914000000     1.506000000
H    -2.108000000    -2.261000000     0.991000000
H    -0.447000000    -2.692000000     1.577000000
H    -1.544000000    -1.579000000     2.491000000
C    -0.334000000    -1.096000000    -0.699000000
H    -0.648000000    -1.946000000    -1.298000000
C     0.475000000    -0.169000000    -1.408000000
H     0.660000000    -0.375000000    -2.459000000
C     0.758000000     1.089000000    -0.855000000
C     1.357000000     2.166000000    -1.631000000
O     1.295000000     2.040000000    -2.821000000
O     1.921000000     3.065000000    -1.051000000
O     2.067000000    -0.934000000     3.427000000
H     1.428000000    -1.400000000     2.888000000
H     1.924000000    -1.270000000     4.312000000
O    -2.445000000    -5.900000000     1.741000000
H    -2.821000000    -5.177000000     2.244000000
H    -2.955000000    -6.666000000     2.005000000
O     1.591000000     6.212000000    -3.548000000
H     1.113000000     6.887000000    -4.030000000
H     2.358000000     6.664000000    -3.197000000
O    -0.051000000    -5.045000000     5.302000000
H     0.490000000    -5.539000000     4.686000000
H    -0.602000000    -5.706000000     5.720000000
O     3.506000000    -2.138000000    -1.700000000
H     2.778000000    -1.518000000    -1.752000000
H     3.087000000    -2.999000000    -1.700000000
O    -0.356000000     3.149000000    -7.766000000
H    -0.168000000     2.376000000    -7.233000000
H    -0.990000000     3.647000000    -7.251000000
O     2.084000000    -4.707000000    -1.496000000
H     1.666000000    -4.980000000    -2.313000000
H     1.381000000    -4.734000000    -0.847000000
O     5.366000000     1.611000000     3.372000000
H     4.486000000     1.712000000     3.009000000
H     5.713000000     0.827000000     2.947000000
O     0.217000000     5.843000000     3.566000000
H     0.898000000     5.174000000     3.637000000
H     0.691000000     6.646000000     3.352000000
O    -1.906000000    -3.319000000    -3.110000000
H    -2.583000000    -3.668000000    -2.529000000
H    -1.278000000    -4.035000000    -3.203000000
O     2.470000000     4.193000000     3.505000000
H     2.698000000     4.237000000     2.576000000
H     2.415000000     3.257000000     3.694000000
O     4.200000000     3.721000000    -6.107000000
H     4.950000000     4.313000000    -6.051000000
H     3.696000000     3.898000000    -5.313000000
O    -2.162000000     4.885000000     2.476000000
H    -1.231000000     5.049000000     2.628000000
H    -2.195000000     4.478000000     1.610000000
O     2.948000000     8.324000000     0.170000000
H     3.881000000     8.509000000     0.070000000
H     2.832000000     7.457000000    -0.219000000
O    -3.760000000    -1.845000000     4.524000000
H    -2.805000000    -1.910000000     4.517000000
H    -3.939000000    -0.990000000     4.917000000
O     1.677000000    -1.904000000    -5.673000000
H     0.803000000    -1.870000000    -5.284000000
H     1.738000000    -1.104000000    -6.195000000
O     7.230000000     1.555000000    -0.012000000
H     7.364000000     0.983000000     0.744000000
H     6.284000000     1.537000000    -0.162000000
O    -4.603000000    -4.615000000     3.146000000
H    -4.541000000    -3.765000000     3.581000000
H    -5.542000000    -4.787000000     3.087000000
O    -1.538000000    -2.014000000    -5.368000000
H    -1.805000000    -2.512000000    -4.596000000
H    -2.012000000    -2.423000000    -6.093000000
O     1.379000000     5.677000000    -0.455000000
H     1.524000000     4.734000000    -0.541000000
H     1.149000000     5.965000000    -1.339000000
O     3.438000000     4.660000000     1.097000000
H     2.698000000     5.076000000     0.655000000
H     3.966000000     5.391000000     1.418000000
O    -0.024000000     0.624000000    -6.729000000
H     0.724000000     0.724000000    -6.141000000
H    -0.607000000     0.016000000    -6.273000000
O     3.534000000     4.480000000    -2.695000000
H     2.963000000     5.193000000    -2.983000000
H     2.935000000     3.815000000    -2.358000000
O    -0.682000000     7.531000000     0.834000000
H    -0.229000000     8.298000000     0.482000000
H    -0.091000000     6.800000000     0.652000000
O    -6.192000000    -2.658000000    -1.410000000
H    -6.049000000    -2.421000000    -0.494000000
H    -7.127000000    -2.514000000    -1.553000000
O    -4.177000000     1.985000000     5.511000000
H    -4.080000000     2.914000000     5.719000000
H    -3.282000000     1.646000000     5.509000000
O    -1.414000000     1.778000000     6.416000000
H    -0.461000000     1.857000000     6.450000000
H    -1.571000000     0.853000000     6.225000000
O    -2.020000000     3.541000000     0.039000000
H    -2.286000000     3.746000000    -0.857000000
H    -2.244000000     2.617000000     0.150000000
O    -2.958000000     5.434000000    -2.364000000
H    -3.571000000     4.708000000    -2.481000000
H    -2.093000000     5.028000000    -2.424000000
O     2.176000000     1.336000000    -4.990000000
H     3.064000000     1.442000000    -4.647000000
H     1.608000000     1.475000000    -4.232000000
O    -2.820000000     0.852000000    -1.092000000
H    -2.119000000     0.201000000    -1.118000000
H    -3.307000000     0.711000000    -1.904000000
O    -6.556000000    -1.219000000     1.589000000
H    -6.729000000    -2.073000000     1.986000000
H    -5.851000000    -0.847000000     2.118000000
O    -2.451000000     2.257000000    -4.484000000
H    -3.161000000     2.808000000    -4.154000000
H    -1.684000000     2.829000000    -4.485000000
O    -0.294000000     4.070000000    -3.987000000
H     0.136000000     3.331000000    -3.557000000
H     0.271000000     4.819000000    -3.795000000
O     3.587000000     0.232000000     1.442000000
H     3.020000000    -0.229000000     2.060000000
H     4.012000000    -0.465000000     0.941000000
O    -5.474000000     1.823000000     0.968000000
H    -4.700000000     1.807000000     0.404000000
H    -6.067000000     1.180000000     0.579000000
O     5.957000000     3.926000000    -1.623000000
H     5.657000000     3.340000000    -0.928000000
H     5.157000000     4.341000000    -1.947000000
O    -0.401000000    -4.681000000    -0.022000000
H    -0.757000000    -3.821000000     0.204000000
H    -1.076000000    -5.300000000     0.254000000
O     0.870000000    -2.570000000     5.391000000
H     1.261000000    -2.477000000     6.260000000
H     0.586000000    -3.483000000     5.352000000
O     4.236000000    -1.779000000    -4.282000000
H     3.342000000    -1.456000000    -4.394000000
H     4.377000000    -1.769000000    -3.335000000
O     1.909000000     1.689000000     4.318000000
H     1.870000000     0.778000000     4.027000000
H     1.879000000     1.637000000     5.273000000
O    -1.290000000    -0.885000000     6.149000000
H    -1.251000000    -1.091000000     7.083000000
H    -0.853000000    -1.623000000     5.723000000
O    -0.366000000    -5.230000000    -3.762000000
H     0.198000000    -5.118000000    -4.527000000
H    -0.821000000    -6.057000000    -3.919000000
O     1.090000000    -5.935000000     2.007000000
H     2.024000000    -5.801000000     1.842000000
H     0.652000000    -5.352000000     1.386000000
O     4.000000000    -3.250000000     4.355000000
H     4.064000000    -4.115000000     4.761000000
H     3.062000000    -3.117000000     4.220000000
O    -4.319000000    -4.636000000    -2.064000000
H    -4.974000000    -3.959000000    -1.892000000
H    -4.593000000    -5.378000000    -1.525000000
O     4.049000000     0.554000000    -3.005000000
H     4.996000000     0.687000000    -2.952000000
H     3.698000000     1.043000000    -2.261000000
O     4.433000000     2.223000000    -0.166000000
H     3.932000000     3.024000000    -0.012000000
H     3.898000000     1.528000000     0.216000000
