161
-3031.77738
C     0.816000000     1.188000000    -0.236000000
H     1.531000000     1.998000000    -0.363000000
C     0.425000000     0.675000000     0.983000000
H     0.861000000     1.206000000     1.825000000
C    -0.433000000    -0.462000000     1.141000000
C    -0.903000000    -0.756000000     2.487000000
H    -0.152000000    -1.417000000     2.924000000
H    -0.894000000     0.152000000     3.094000000
H    -1.925000000    -1.141000000     2.490000000
C    -0.891000000    -1.104000000    -0.023000000
H    -1.483000000    -2.012000000     0.062000000
C    -0.443000000    -0.651000000    -1.315000000
H    -0.738000000    -1.086000000    -2.266000000
C     0.448000000     0.449000000    -1.467000000
C     1.088000000     0.861000000    -2.763000000
O     0.967000000     0.203000000    -3.729000000
O     1.731000000     1.900000000    -2.852000000
O     3.304000000     3.963000000     0.033000000
H     3.623000000     4.292000000     0.874000000
H     3.155000000     4.749000000    -0.491000000
O    -1.914000000    -6.532000000    -1.214000000
H    -1.992000000    -6.715000000    -0.278000000
H    -2.507000000    -5.797000000    -1.365000000
O    -1.039000000     1.745000000     7.525000000
H    -1.925000000     1.856000000     7.870000000
H    -1.142000000     1.807000000     6.576000000
O    -0.003000000    -3.860000000    -2.467000000
H     0.141000000    -4.766000000    -2.738000000
H     0.732000000    -3.377000000    -2.845000000
O     5.297000000    -0.972000000    -3.512000000
H     4.870000000    -0.555000000    -4.260000000
H     4.743000000    -0.748000000    -2.764000000
O    -0.601000000    -2.746000000     5.288000000
H    -0.816000000    -3.675000000     5.208000000
H     0.299000000    -2.736000000     5.614000000
O    -0.642000000    -2.986000000    -5.213000000
H    -1.137000000    -3.753000000    -5.505000000
H     0.272000000    -3.267000000    -5.240000000
O    -5.315000000     1.073000000    -1.962000000
H    -4.687000000     0.965000000    -1.248000000
H    -4.842000000     0.785000000    -2.742000000
O    -5.430000000    -1.133000000     1.956000000
H    -4.548000000    -0.845000000     1.721000000
H    -5.562000000    -1.935000000     1.451000000
O     0.597000000    -1.180000000    -7.663000000
H     0.095000000    -1.077000000    -6.854000000
H     1.498000000    -1.316000000    -7.371000000
O     2.177000000    -1.739000000     0.470000000
H     1.595000000    -0.981000000     0.422000000
H     1.621000000    -2.448000000     0.794000000
O     0.728000000     4.754000000    -2.281000000
H     1.473000000     5.350000000    -2.354000000
H     1.052000000     3.922000000    -2.626000000
O    -4.094000000    -4.751000000    -1.735000000
H    -4.211000000    -4.306000000    -0.896000000
H    -4.690000000    -5.499000000    -1.695000000
O    -3.522000000    -0.162000000    -3.786000000
H    -3.060000000    -0.271000000    -4.618000000
H    -3.401000000    -0.997000000    -3.334000000
O     2.689000000     1.764000000    -7.649000000
H     2.744000000     1.196000000    -8.417000000
H     2.966000000     1.209000000    -6.920000000
O     0.067000000     3.844000000     2.366000000
H    -0.633000000     3.405000000     1.883000000
H     0.333000000     4.567000000     1.797000000
O    -6.050000000    -2.029000000     4.392000000
H    -6.252000000    -1.293000000     4.970000000
H    -6.071000000    -1.654000000     3.511000000
O    -2.834000000    -0.795000000     5.094000000
H    -3.483000000    -1.359000000     4.673000000
H    -2.187000000    -1.402000000     5.454000000
O     3.357000000     3.424000000     3.047000000
H     3.342000000     3.473000000     4.003000000
H     2.435000000     3.455000000     2.792000000
O     5.676000000    -0.055000000    -0.860000000
H     5.502000000     0.211000000     0.043000000
H     5.235000000     0.607000000    -1.394000000
O     4.508000000    -1.361000000     2.259000000
H     4.832000000    -2.238000000     2.052000000
H     3.819000000    -1.202000000     1.614000000
O     0.531000000     5.948000000     0.753000000
H     1.191000000     5.682000000     0.113000000
H     0.406000000     6.884000000     0.595000000
O    -1.088000000    -0.491000000    -5.656000000
H    -0.341000000    -0.322000000    -5.082000000
H    -1.289000000    -1.417000000    -5.521000000
O     3.993000000     1.418000000     0.935000000
H     3.694000000     2.265000000     0.605000000
H     4.280000000     1.597000000     1.830000000
O    -2.666000000     1.870000000     4.835000000
H    -3.623000000     1.877000000     4.818000000
H    -2.432000000     0.947000000     4.741000000
O    -2.227000000     1.131000000    -7.652000000
H    -2.006000000     0.525000000    -6.945000000
H    -1.411000000     1.235000000    -8.143000000
O     5.226000000     3.576000000    -5.264000000
H     5.345000000     3.235000000    -4.378000000
H     5.723000000     2.976000000    -5.820000000
O    -1.665000000     2.242000000    -4.373000000
H    -0.811000000     2.670000000    -4.442000000
H    -1.484000000     1.318000000    -4.545000000
O    -0.941000000     5.425000000    -4.782000000
H    -0.803000000     5.734000000    -3.886000000
H    -0.290000000     4.734000000    -4.900000000
O    -1.550000000     2.861000000     0.453000000
H    -0.714000000     2.599000000     0.068000000
H    -2.125000000     3.007000000    -0.298000000
O     0.546000000    -4.102000000     1.214000000
H     0.875000000    -4.354000000     0.351000000
H     0.010000000    -4.845000000     1.492000000
O    -2.663000000    -2.610000000    -2.798000000
H    -1.783000000    -2.987000000    -2.780000000
H    -3.135000000    -3.070000000    -2.104000000
O    -2.681000000     2.653000000    -1.962000000
H    -3.378000000     3.269000000    -2.188000000
H    -2.188000000     2.540000000    -2.776000000
O     0.568000000     2.291000000     4.476000000
H     0.175000000     2.521000000     3.634000000
H     0.567000000     3.109000000     4.972000000
O     2.347000000    -4.425000000     3.912000000
H     3.192000000    -4.134000000     3.568000000
H     1.779000000    -4.475000000     3.144000000
O     3.323000000    -3.157000000    -1.407000000
H     2.910000000    -2.544000000    -0.799000000
H     3.100000000    -2.820000000    -2.275000000
O    -3.473000000    -3.520000000     1.167000000
H    -4.280000000    -3.878000000     1.538000000
H    -2.778000000    -3.865000000     1.727000000
O     4.316000000     0.458000000     4.348000000
H     4.264000000    -0.127000000     3.592000000
H     3.452000000     0.866000000     4.395000000
O     3.108000000     0.646000000    -5.253000000
H     3.416000000     1.475000000    -4.887000000
H     2.389000000     0.383000000    -4.678000000
O     0.854000000     3.362000000    -5.005000000
H     1.596000000     3.694000000    -5.511000000
H     1.253000000     2.948000000    -4.240000000
O     2.956000000     4.847000000    -5.815000000
H     3.767000000     4.338000000    -5.825000000
H     3.162000000     5.616000000    -5.284000000
O    -2.319000000    -4.983000000     3.827000000
H    -3.145000000    -4.506000000     3.906000000
H    -2.289000000    -5.541000000     4.604000000
O     1.931000000    -2.374000000    -3.982000000
H     2.112000000    -2.592000000    -4.897000000
H     1.586000000    -1.482000000    -4.013000000
O    -3.261000000     0.534000000     0.128000000
H    -2.687000000     1.299000000     0.179000000
H    -2.824000000    -0.052000000    -0.490000000
O    -1.981000000     5.632000000    -1.202000000
H    -1.066000000     5.356000000    -1.252000000
H    -2.037000000     6.131000000    -0.387000000
O    -4.738000000     2.071000000     2.674000000
H    -4.056000000     1.614000000     2.182000000
H    -5.089000000     2.714000000     2.057000000
O     1.068000000    -0.372000000     5.105000000
H     0.304000000    -0.691000000     4.625000000
H     1.022000000     0.581000000     5.021000000
O     4.385000000     2.201000000    -2.811000000
H     3.435000000     2.115000000    -2.894000000
H     4.508000000     2.948000000    -2.226000000
