161
-3023.69570
C     0.683000000     1.092000000    -0.720000000
H     1.230000000     1.917000000    -1.170000000
C     0.570000000     1.003000000     0.666000000
H     1.058000000     1.742000000     1.298000000
C    -0.021000000    -0.144000000     1.229000000
C    -0.183000000    -0.178000000     2.743000000
H     0.372000000     0.676000000     3.137000000
H    -1.244000000    -0.282000000     2.980000000
H     0.424000000    -1.042000000     3.022000000
C    -0.524000000    -1.125000000     0.401000000
H    -0.953000000    -2.039000000     0.804000000
C    -0.541000000    -1.006000000    -0.952000000
H    -0.910000000    -1.761000000    -1.642000000
C     0.074000000     0.120000000    -1.530000000
C    -0.021000000     0.325000000    -3.027000000
O    -0.625000000    -0.515000000    -3.665000000
O     0.613000000     1.219000000    -3.573000000
O     2.766000000     3.514000000     0.242000000
H     3.546000000     3.605000000    -0.306000000
H     3.028000000     2.905000000     0.933000000
O    -2.072000000    -0.540000000     5.934000000
H    -2.637000000     0.081000000     5.475000000
H    -1.792000000    -1.156000000     5.257000000
O    -2.530000000     3.021000000    -0.399000000
H    -2.421000000     2.078000000    -0.275000000
H    -1.644000000     3.376000000    -0.321000000
O    -5.217000000     1.511000000    -3.019000000
H    -4.485000000     0.988000000    -3.345000000
H    -5.994000000     1.093000000    -3.392000000
O    -6.590000000    -1.232000000     2.010000000
H    -5.860000000    -0.713000000     2.346000000
H    -6.261000000    -2.131000000     2.000000000
O     1.797000000    -2.810000000    -1.927000000
H     1.541000000    -2.774000000    -2.849000000
H     1.648000000    -3.720000000    -1.672000000
O     1.506000000    -0.782000000    -8.200000000
H     0.691000000    -0.999000000    -8.653000000
H     1.224000000    -0.411000000    -7.364000000
O     4.970000000     3.545000000    -2.013000000
H     5.693000000     3.338000000    -2.605000000
H     4.216000000     3.092000000    -2.390000000
O     0.657000000    -4.056000000    -6.902000000
H     0.176000000    -4.879000000    -6.818000000
H     0.447000000    -3.573000000    -6.102000000
O    -3.813000000    -4.878000000     3.840000000
H    -3.255000000    -4.164000000     4.149000000
H    -3.234000000    -5.640000000     3.811000000
O     2.791000000    -0.989000000    -0.297000000
H     2.451000000    -1.650000000    -0.899000000
H     2.076000000    -0.838000000     0.322000000
O    -5.193000000    -3.584000000    -1.044000000
H    -5.171000000    -2.699000000    -0.680000000
H    -5.028000000    -4.156000000    -0.295000000
O     3.048000000    -1.882000000    -6.199000000
H     2.776000000    -1.633000000    -7.083000000
H     3.080000000    -2.838000000    -6.219000000
O    -1.131000000    -6.078000000    -4.177000000
H    -0.561000000    -6.054000000    -3.409000000
H    -2.018000000    -6.064000000    -3.819000000
O    -0.458000000     4.359000000     0.677000000
H     0.437000000     4.248000000     0.997000000
H    -0.954000000     4.641000000     1.446000000
O    -1.755000000    -6.946000000     1.803000000
H    -1.536000000    -7.760000000     1.350000000
H    -0.955000000    -6.423000000     1.756000000
O     0.772000000     1.324000000    -6.241000000
H     1.671000000     1.639000000    -6.335000000
H     0.596000000     1.378000000    -5.301000000
O    -3.816000000    -0.671000000     0.435000000
H    -2.968000000    -1.109000000     0.515000000
H    -4.017000000    -0.376000000     1.323000000
O     1.290000000     5.140000000     3.607000000
H     0.896000000     6.012000000     3.619000000
H     2.150000000     5.260000000     4.010000000
O     1.576000000     1.335000000     6.039000000
H     1.950000000     0.649000000     5.486000000
H     1.344000000     0.887000000     6.852000000
O     4.665000000    -0.295000000    -2.493000000
H     4.156000000    -0.206000000    -1.687000000
H     4.722000000    -1.240000000    -2.637000000
O     0.783000000    -4.912000000     2.319000000
H     0.909000000    -5.428000000     3.115000000
H     0.380000000    -4.098000000     2.623000000
O     2.788000000     6.742000000     1.338000000
H     2.628000000     5.843000000     1.626000000
H     3.052000000     6.656000000     0.422000000
O    -1.130000000    -1.230000000    -6.628000000
H    -0.761000000    -1.076000000    -5.758000000
H    -1.147000000    -0.365000000    -7.037000000
O     4.602000000    -0.871000000     2.039000000
H     4.032000000    -0.488000000     1.371000000
H     4.736000000    -0.166000000     2.672000000
O    -2.603000000     1.768000000     4.007000000
H    -2.889000000     2.407000000     3.355000000
H    -1.909000000     2.215000000     4.492000000
O    -3.819000000     1.471000000    -6.058000000
H    -3.788000000     0.911000000    -5.282000000
H    -2.971000000     1.341000000    -6.482000000
O     3.202000000     2.372000000    -6.352000000
H     3.873000000     1.956000000    -6.894000000
H     3.561000000     2.345000000    -5.465000000
O     2.795000000    -5.001000000     0.319000000
H     3.504000000    -4.361000000     0.385000000
H     2.246000000    -4.831000000     1.085000000
O     0.877000000    -5.401000000    -1.503000000
H     1.475000000    -5.456000000    -0.758000000
H     0.774000000    -6.306000000    -1.795000000
O     2.415000000    -2.969000000     6.195000000
H     2.118000000    -2.841000000     7.096000000
H     2.676000000    -3.889000000     6.157000000
O    -3.151000000    -0.201000000    -3.859000000
H    -3.260000000    -1.148000000    -3.775000000
H    -2.222000000    -0.050000000    -3.684000000
O    -4.283000000    -0.132000000     3.185000000
H    -4.055000000     0.710000000     3.580000000
H    -4.066000000    -0.779000000     3.856000000
O     5.366000000     1.751000000     0.242000000
H     6.087000000     2.221000000     0.661000000
H     5.514000000     1.873000000    -0.696000000
O    -1.488000000     4.530000000    -4.581000000
H    -1.047000000     3.681000000    -4.577000000
H    -1.328000000     4.887000000    -3.707000000
O     4.850000000     1.175000000     3.887000000
H     4.489000000     1.926000000     4.359000000
H     4.530000000     0.413000000     4.370000000
O     1.590000000     4.892000000    -4.310000000
H     2.306000000     4.258000000    -4.346000000
H     1.167000000     4.727000000    -3.467000000
O     0.269000000     4.120000000    -2.196000000
H     0.081000000     4.158000000    -1.258000000
H     0.186000000     3.193000000    -2.420000000
O    -0.167000000     3.347000000     5.228000000
H     0.418000000     2.645000000     5.513000000
H     0.252000000     3.705000000     4.445000000
O     3.621000000    -0.733000000     5.403000000
H     4.520000000    -0.985000000     5.616000000
H     3.104000000    -1.520000000     5.576000000
O    -1.541000000     1.300000000    -7.672000000
H    -0.627000000     1.339000000    -7.392000000
H    -1.582000000     1.874000000    -8.437000000
O    -0.805000000    -3.008000000     4.152000000
H    -0.909000000    -3.637000000     4.866000000
H    -0.124000000    -2.409000000     4.458000000
O    -3.949000000    -2.922000000    -3.569000000
H    -4.175000000    -3.247000000    -2.697000000
H    -4.242000000    -3.612000000    -4.165000000
O     1.011000000    -2.385000000    -4.500000000
H     1.523000000    -1.884000000    -5.135000000
H     0.494000000    -1.726000000    -4.037000000
O    -4.466000000    -1.707000000    -6.783000000
H    -5.044000000    -1.904000000    -6.045000000
H    -3.706000000    -1.283000000    -6.385000000
O    -2.686000000     3.523000000     2.158000000
H    -2.873000000     3.618000000     1.224000000
H    -2.923000000     4.369000000     2.537000000
O     3.662000000     2.843000000     5.737000000
H     3.582000000     3.787000000     5.598000000
H     2.762000000     2.542000000     5.862000000
O     3.093000000     2.039000000    -3.503000000
H     2.165000000     1.804000000    -3.492000000
H     3.550000000     1.218000000    -3.319000000
