161
-3004.74883
C    -0.264000000    -0.865000000    -1.091000000
H    -0.483000000    -1.607000000    -1.855000000
C     0.789000000    -1.003000000    -0.268000000
H     1.418000000    -1.881000000    -0.397000000
C     1.132000000     0.019000000     0.651000000
C     2.288000000    -0.128000000     1.515000000
H     2.574000000    -1.165000000     1.700000000
H     3.175000000     0.386000000     1.139000000
H     2.067000000     0.317000000     2.488000000
C     0.095000000     1.003000000     0.846000000
H     0.190000000     1.803000000     1.577000000
C    -1.093000000     1.017000000     0.121000000
H    -1.850000000     1.741000000     0.413000000
C    -1.285000000     0.083000000    -0.920000000
C    -2.535000000     0.095000000    -1.807000000
O    -3.283000000     1.017000000    -1.679000000
O    -2.928000000    -0.840000000    -2.433000000
O    -6.159000000    -3.473000000    -3.025000000
H    -5.822000000    -2.618000000    -2.756000000
H    -5.887000000    -3.560000000    -3.939000000
O    -3.814000000    -5.891000000    -1.752000000
H    -3.777000000    -5.309000000    -2.512000000
H    -3.505000000    -6.735000000    -2.082000000
O    -2.748000000    -3.062000000    -0.098000000
H    -2.156000000    -3.055000000    -0.850000000
H    -2.890000000    -3.990000000     0.087000000
O     3.925000000    -1.030000000    -2.208000000
H     3.334000000    -1.480000000    -2.812000000
H     4.426000000    -0.433000000    -2.764000000
O    -0.049000000    -4.003000000    -1.493000000
H     0.623000000    -4.372000000    -2.066000000
H     0.142000000    -4.375000000    -0.631000000
O     0.420000000    -4.850000000     1.158000000
H    -0.533000000    -4.909000000     1.217000000
H     0.738000000    -5.356000000     1.905000000
O    -7.504000000     2.811000000    -0.901000000
H    -8.068000000     2.111000000    -0.574000000
H    -7.691000000     3.556000000    -0.330000000
O     2.876000000    -2.193000000    -4.486000000
H     3.578000000    -1.581000000    -4.705000000
H     2.172000000    -1.979000000    -5.099000000
O     5.550000000    -4.809000000    -0.872000000
H     5.782000000    -5.173000000    -1.726000000
H     4.595000000    -4.750000000    -0.888000000
O    -8.396000000    -0.973000000    -2.650000000
H    -8.126000000    -0.769000000    -3.545000000
H    -7.587000000    -0.936000000    -2.140000000
O    -6.241000000    -0.773000000     1.212000000
H    -5.987000000     0.075000000     0.848000000
H    -7.159000000    -0.875000000     0.963000000
O    -3.857000000     1.374000000     2.625000000
H    -3.444000000     0.513000000     2.564000000
H    -4.321000000     1.477000000     1.793000000
O     4.535000000    -5.942000000     1.935000000
H     3.783000000    -5.834000000     2.517000000
H     4.757000000    -5.051000000     1.663000000
O    -3.064000000     4.448000000    -4.638000000
H    -3.992000000     4.675000000    -4.574000000
H    -2.745000000     4.484000000    -3.736000000
O    -2.699000000    -2.693000000    -6.174000000
H    -3.412000000    -3.133000000    -5.710000000
H    -2.679000000    -1.811000000    -5.802000000
O     3.579000000    -3.124000000     3.529000000
H     3.735000000    -2.827000000     4.425000000
H     3.371000000    -4.054000000     3.618000000
O    -3.989000000    -5.081000000    -4.760000000
H    -3.330000000    -5.546000000    -5.276000000
H    -3.494000000    -4.408000000    -4.291000000
O    -0.640000000     4.551000000     1.197000000
H    -0.736000000     5.498000000     1.100000000
H    -0.128000000     4.283000000     0.434000000
O    -6.784000000     0.092000000    -4.784000000
H    -6.125000000     0.704000000    -4.455000000
H    -7.417000000     0.645000000    -5.242000000
O     4.811000000     2.352000000     1.542000000
H     5.535000000     1.777000000     1.294000000
H     4.603000000     2.834000000     0.741000000
O    -2.696000000    -3.300000000    -3.509000000
H    -2.650000000    -2.473000000    -3.029000000
H    -1.821000000    -3.679000000    -3.418000000
O     1.120000000    -4.609000000    -4.281000000
H     1.744000000    -3.884000000    -4.248000000
H     0.723000000    -4.544000000    -5.150000000
O    -2.162000000     5.906000000     4.280000000
H    -1.713000000     5.087000000     4.072000000
H    -1.869000000     6.519000000     3.606000000
O     1.186000000     3.746000000    -0.814000000
H     1.396000000     3.035000000    -1.419000000
H     2.035000000     4.027000000    -0.471000000
O     0.764000000     1.842000000    -4.584000000
H     1.379000000     1.546000000    -3.913000000
H     0.701000000     1.105000000    -5.193000000
O    -5.577000000    -1.168000000    -1.610000000
H    -4.860000000    -0.584000000    -1.857000000
H    -5.371000000    -1.433000000    -0.713000000
O     2.768000000    -5.435000000    -1.018000000
H     2.995000000    -6.331000000    -0.770000000
H     2.042000000    -5.203000000    -0.440000000
O    -5.849000000     3.655000000     2.889000000
H    -6.071000000     3.873000000     3.794000000
H    -5.504000000     2.763000000     2.936000000
O     7.084000000     0.840000000     0.597000000
H     7.607000000     0.229000000     1.117000000
H     6.485000000     0.281000000     0.102000000
O    -4.423000000     5.506000000    -0.597000000
H    -3.860000000     5.014000000    -1.194000000
H    -4.080000000     6.399000000    -0.625000000
O     2.280000000     1.049000000     7.269000000
H     3.093000000     0.553000000     7.370000000
H     1.844000000     0.645000000     6.520000000
O     6.964000000     2.671000000    -1.453000000
H     6.803000000     1.952000000    -0.842000000
H     6.098000000     2.895000000    -1.794000000
O     1.081000000    -0.738000000     5.506000000
H     0.479000000     0.003000000     5.446000000
H     0.513000000    -1.507000000     5.544000000
O    -1.737000000     3.318000000     3.347000000
H    -2.454000000     2.800000000     2.983000000
H    -1.345000000     3.752000000     2.589000000
O    -5.038000000     1.862000000     0.168000000
H    -5.400000000     2.699000000    -0.123000000
H    -4.313000000     1.692000000    -0.433000000
O     5.775000000    -0.809000000     2.749000000
H     5.273000000    -1.435000000     3.271000000
H     5.438000000     0.047000000     3.013000000
O    -3.614000000     0.024000000    -4.858000000
H    -4.151000000    -0.683000000    -5.215000000
H    -3.383000000    -0.273000000    -3.977000000
O    -1.129000000     1.406000000     5.863000000
H    -2.064000000     1.283000000     5.701000000
H    -0.935000000     2.271000000     5.502000000
O    -2.348000000    -0.996000000     1.760000000
H    -1.505000000    -0.601000000     1.535000000
H    -2.575000000    -1.527000000     0.996000000
O     1.496000000     4.150000000     3.294000000
H     0.651000000     3.997000000     2.871000000
H     2.118000000     3.633000000     2.782000000
O    -0.458000000    -3.150000000     4.189000000
H    -1.260000000    -2.634000000     4.100000000
H    -0.009000000    -3.041000000     3.350000000
O     4.958000000     3.837000000     3.809000000
H     4.806000000     3.188000000     3.122000000
H     5.878000000     4.081000000     3.708000000
O    -2.793000000     2.100000000    -6.238000000
H    -3.146000000     1.479000000    -5.601000000
H    -2.750000000     2.931000000    -5.764000000
O    -5.850000000    -4.249000000    -0.478000000
H    -6.199000000    -3.707000000    -1.185000000
H    -5.050000000    -4.630000000    -0.840000000
O     2.589000000     1.762000000    -2.468000000
H     2.760000000     0.990000000    -1.929000000
H     3.452000000     2.151000000    -2.610000000
O    -5.445000000     2.105000000    -3.456000000
H    -4.637000000     1.918000000    -2.978000000
H    -6.106000000     2.217000000    -2.773000000
O     6.057000000    -1.401000000    -0.442000000
H     5.256000000    -1.383000000    -0.965000000
H     6.090000000    -2.288000000    -0.084000000
O    -2.361000000     3.835000000    -2.138000000
H    -1.835000000     4.060000000    -1.371000000
H    -2.465000000     2.885000000    -2.088000000
