161
-3046.29768
C     1.393000000    -0.035000000    -0.552000000
H     2.433000000    -0.134000000    -0.854000000
C     1.003000000    -0.293000000     0.771000000
H     1.728000000    -0.579000000     1.528000000
C    -0.303000000    -0.204000000     1.195000000
C    -0.765000000    -0.337000000     2.609000000
H    -0.100000000     0.197000000     3.291000000
H    -1.841000000    -0.245000000     2.769000000
H    -0.707000000    -1.387000000     2.904000000
C    -1.256000000     0.088000000     0.239000000
H    -2.318000000     0.112000000     0.471000000
C    -0.910000000     0.245000000    -1.135000000
H    -1.702000000     0.445000000    -1.851000000
C     0.426000000     0.181000000    -1.553000000
C     0.885000000     0.521000000    -2.921000000
O     0.047000000     0.396000000    -3.828000000
O     1.979000000     1.035000000    -3.084000000
O     2.495000000     3.453000000    -1.710000000
H     3.441000000     3.316000000    -1.762000000
H     2.140000000     2.949000000    -2.441000000
O    -5.931000000    -1.124000000     0.610000000
H    -6.113000000    -1.948000000     0.157000000
H    -6.432000000    -0.468000000     0.124000000
O    -0.228000000    -4.327000000     3.260000000
H     0.440000000    -4.545000000     2.609000000
H     0.205000000    -3.710000000     3.849000000
O    -2.914000000     4.409000000    -2.287000000
H    -2.520000000     5.180000000    -2.695000000
H    -2.469000000     3.668000000    -2.698000000
O    -1.994000000     2.240000000    -4.100000000
H    -1.224000000     1.673000000    -4.129000000
H    -1.813000000     2.924000000    -4.744000000
O    -4.777000000     3.269000000    -1.119000000
H    -4.013000000     3.737000000    -1.458000000
H    -4.878000000     2.520000000    -1.705000000
O     2.830000000    -1.942000000    -6.679000000
H     3.663000000    -2.317000000    -6.967000000
H     2.304000000    -2.699000000    -6.421000000
O     1.157000000    -0.782000000     7.266000000
H     1.143000000    -1.656000000     7.656000000
H     0.825000000    -0.207000000     7.955000000
O     3.865000000     5.219000000    -4.093000000
H     2.929000000     5.388000000    -4.208000000
H     3.946000000     4.268000000    -4.158000000
O    -2.693000000    -3.629000000     1.712000000
H    -1.890000000    -3.625000000     2.233000000
H    -2.439000000    -3.241000000     0.875000000
O     4.319000000    -0.677000000    -2.664000000
H     3.848000000    -1.443000000    -2.337000000
H     3.635000000    -0.110000000    -3.021000000
O    -3.916000000    -4.453000000    -2.256000000
H    -4.728000000    -3.962000000    -2.126000000
H    -3.231000000    -3.878000000    -1.917000000
O     2.277000000     0.200000000    -8.534000000
H     2.628000000    -0.222000000    -7.750000000
H     1.473000000    -0.284000000    -8.726000000
O    -0.366000000    -3.319000000    -7.264000000
H     0.218000000    -3.997000000    -6.924000000
H    -0.368000000    -2.643000000    -6.586000000
O     0.930000000     5.387000000    -0.236000000
H     1.420000000     4.824000000    -0.834000000
H     0.675000000     6.140000000    -0.770000000
O     2.441000000     1.044000000     5.518000000
H     1.994000000     0.610000000     6.244000000
H     1.817000000     1.701000000     5.210000000
O     0.607000000    -4.038000000    -1.139000000
H     0.172000000    -4.789000000    -1.542000000
H     0.843000000    -4.339000000    -0.262000000
O     1.187000000     2.832000000    -5.021000000
H     0.899000000     2.600000000    -5.904000000
H     1.116000000     2.017000000    -4.524000000
O    -4.601000000     1.349000000    -3.189000000
H    -3.789000000     1.675000000    -3.578000000
H    -4.772000000     0.526000000    -3.646000000
O    -4.937000000    -3.391000000     3.304000000
H    -4.114000000    -3.382000000     2.815000000
H    -5.433000000    -4.116000000     2.923000000
O     3.125000000    -1.036000000     4.180000000
H     3.955000000    -1.153000000     4.641000000
H     2.810000000    -0.178000000     4.467000000
O     6.265000000     1.316000000    -5.275000000
H     6.408000000     0.476000000    -4.840000000
H     6.477000000     1.149000000    -6.193000000
O     0.423000000     3.471000000     4.874000000
H    -0.505000000     3.702000000     4.842000000
H     0.695000000     3.442000000     3.957000000
O     1.619000000    -4.879000000     1.247000000
H     1.859000000    -5.792000000     1.091000000
H     2.436000000    -4.458000000     1.514000000
O     1.011000000    -2.458000000     4.915000000
H     1.751000000    -2.059000000     4.458000000
H     1.033000000    -2.071000000     5.790000000
O    -2.117000000    -1.385000000    -3.741000000
H    -1.855000000    -1.779000000    -2.909000000
H    -1.335000000    -0.925000000    -4.045000000
O     4.257000000     0.164000000     1.291000000
H     3.601000000     0.861000000     1.303000000
H     4.389000000    -0.057000000     2.213000000
O    -5.630000000    -0.688000000     3.180000000
H    -5.220000000    -1.466000000     3.558000000
H    -5.684000000    -0.876000000     2.243000000
O    -1.340000000     0.630000000     6.058000000
H    -1.636000000     1.378000000     5.539000000
H    -0.853000000     1.020000000     6.784000000
O    -1.712000000     4.139000000     2.801000000
H    -1.962000000     5.062000000     2.780000000
H    -0.900000000     4.098000000     2.294000000
O    -0.183000000     2.862000000    -7.386000000
H    -0.615000000     3.582000000    -7.845000000
H    -0.565000000     2.072000000    -7.768000000
O     3.254000000    -3.036000000    -1.879000000
H     2.359000000    -3.253000000    -1.619000000
H     3.691000000    -3.883000000    -1.965000000
O    -3.693000000    -1.930000000     7.686000000
H    -3.172000000    -1.853000000     6.886000000
H    -4.587000000    -2.078000000     7.376000000
O    -4.637000000    -1.028000000    -4.450000000
H    -5.037000000    -1.897000000    -4.408000000
H    -3.727000000    -1.171000000    -4.190000000
O    -3.262000000     1.893000000     2.900000000
H    -2.897000000     2.774000000     2.812000000
H    -2.567000000     1.314000000     2.587000000
O     4.978000000     1.351000000    -1.016000000
H     4.823000000     0.734000000    -1.732000000
H     4.746000000     0.864000000    -0.226000000
O     0.827000000     5.226000000    -4.533000000
H     0.954000000     5.662000000    -5.376000000
H     0.818000000     4.293000000    -4.746000000
O     6.607000000    -1.185000000    -3.733000000
H     5.743000000    -1.091000000    -3.330000000
H     6.866000000    -2.085000000    -3.534000000
O    -1.823000000    -2.841000000    -1.428000000
H    -1.036000000    -3.383000000    -1.368000000
H    -1.670000000    -2.127000000    -0.810000000
O    -5.377000000     3.264000000     1.480000000
H    -5.188000000     3.778000000     0.696000000
H    -4.542000000     2.853000000     1.704000000
O    -5.355000000     1.638000000     5.008000000
H    -4.468000000     1.812000000     4.694000000
H    -5.552000000     0.756000000     4.694000000
O     0.918000000     3.510000000     2.062000000
H     1.700000000     2.975000000     1.924000000
H     0.891000000     4.095000000     1.305000000
O    -2.485000000    -5.240000000     4.203000000
H    -1.635000000    -5.121000000     3.778000000
H    -2.523000000    -4.547000000     4.861000000
O     0.382000000    -1.254000000    -5.678000000
H     0.502000000    -0.607000000    -4.983000000
H     1.232000000    -1.295000000    -6.117000000
O    -2.077000000    -1.998000000     5.488000000
H    -1.376000000    -2.463000000     5.032000000
H    -1.876000000    -1.072000000     5.354000000
O     4.917000000    -2.141000000     0.062000000
H     4.806000000    -1.279000000     0.462000000
H     4.267000000    -2.164000000    -0.640000000
O     3.518000000     2.859000000     1.209000000
H     4.110000000     3.437000000     1.690000000
H     3.686000000     3.057000000     0.288000000
O     3.968000000     2.466000000    -4.009000000
H     3.211000000     1.963000000    -3.710000000
H     4.604000000     1.804000000    -4.279000000
