161
-3023.89038
C    -0.527000000     0.196000000    -1.325000000
H    -0.691000000     0.329000000    -2.392000000
C    -0.076000000    -1.007000000    -0.829000000
H     0.023000000    -1.784000000    -1.583000000
C     0.313000000    -1.109000000     0.505000000
C     0.926000000    -2.425000000     1.046000000
H     1.994000000    -2.244000000     1.184000000
H     0.523000000    -2.494000000     2.059000000
H     0.684000000    -3.333000000     0.490000000
C     0.330000000     0.067000000     1.276000000
H     0.753000000     0.008000000     2.276000000
C    -0.236000000     1.296000000     0.774000000
H    -0.398000000     2.196000000     1.361000000
C    -0.491000000     1.405000000    -0.594000000
C    -0.902000000     2.612000000    -1.245000000
O    -1.096000000     3.568000000    -0.570000000
O    -1.123000000     2.711000000    -2.427000000
O    -5.247000000     2.248000000     2.350000000
H    -4.399000000     2.389000000     2.771000000
H    -5.034000000     2.092000000     1.430000000
O    -2.353000000    -1.369000000    -3.960000000
H    -2.640000000    -0.456000000    -3.950000000
H    -3.147000000    -1.867000000    -4.153000000
O    -3.104000000     4.861000000    -3.144000000
H    -2.838000000     4.108000000    -2.616000000
H    -3.651000000     4.487000000    -3.836000000
O     1.382000000    -3.373000000    -3.740000000
H     1.291000000    -3.894000000    -4.538000000
H     1.838000000    -2.580000000    -4.023000000
O    -1.230000000    -4.733000000     5.998000000
H    -0.810000000    -5.561000000     5.763000000
H    -1.613000000    -4.418000000     5.179000000
O    -5.248000000     3.364000000    -2.449000000
H    -5.875000000     2.746000000    -2.824000000
H    -5.730000000     4.188000000    -2.389000000
O     2.823000000     4.463000000    -0.302000000
H     2.492000000     3.593000000    -0.523000000
H     3.776000000     4.368000000    -0.316000000
O    -1.041000000     5.669000000     3.748000000
H    -0.464000000     4.962000000     4.036000000
H    -0.946000000     5.683000000     2.796000000
O     2.205000000     6.167000000    -4.884000000
H     1.499000000     5.522000000    -4.846000000
H     2.970000000     5.668000000    -5.169000000
O     6.617000000    -1.674000000     1.122000000
H     6.301000000    -1.072000000     0.449000000
H     5.843000000    -2.178000000     1.374000000
O     0.533000000     1.725000000     7.023000000
H     0.193000000     0.832000000     7.073000000
H     0.982000000     1.764000000     6.179000000
O    -1.179000000    -3.995000000     3.367000000
H    -0.320000000    -4.397000000     3.236000000
H    -1.524000000    -3.875000000     2.483000000
O    -0.165000000    -1.482000000    -5.643000000
H    -0.537000000    -1.700000000    -4.788000000
H     0.761000000    -1.317000000    -5.465000000
O    -0.556000000    -8.404000000     1.286000000
H    -0.380000000    -7.726000000     0.633000000
H    -0.906000000    -7.926000000     2.038000000
O    -1.401000000     8.261000000     1.431000000
H    -1.040000000     7.544000000     0.911000000
H    -0.914000000     8.228000000     2.255000000
O    -3.567000000    -0.505000000    -0.205000000
H    -3.534000000     0.451000000    -0.187000000
H    -2.690000000    -0.780000000     0.062000000
O     2.311000000     1.725000000    -3.950000000
H     2.908000000     2.189000000    -4.537000000
H     2.700000000     1.828000000    -3.082000000
O     3.208000000    -0.239000000     0.025000000
H     3.699000000    -0.829000000    -0.548000000
H     2.308000000    -0.563000000    -0.014000000
O    -3.449000000    -0.260000000     5.491000000
H    -2.657000000    -0.132000000     4.969000000
H    -3.390000000     0.401000000     6.180000000
O     2.698000000    -0.991000000    -4.931000000
H     2.643000000    -0.254000000    -4.322000000
H     3.624000000    -1.038000000    -5.168000000
O    -3.431000000    -3.298000000     1.328000000
H    -3.767000000    -2.648000000     1.945000000
H    -3.876000000    -3.098000000     0.504000000
O     1.225000000    -5.016000000     3.176000000
H     1.705000000    -5.844000000     3.169000000
H     1.899000000    -4.349000000     3.308000000
O     3.722000000     1.915000000    -1.737000000
H     3.402000000     1.261000000    -1.115000000
H     4.581000000     2.168000000    -1.398000000
O    -0.870000000     0.958000000     4.721000000
H    -0.810000000     0.006000000     4.654000000
H     0.032000000     1.262000000     4.624000000
O    -1.315000000     5.368000000     1.126000000
H    -1.023000000     4.594000000     0.645000000
H    -2.091000000     5.667000000     0.651000000
O     3.486000000    -2.608000000    -1.563000000
H     3.113000000    -3.305000000    -2.103000000
H     3.739000000    -3.044000000    -0.750000000
O    -2.884000000     0.605000000    -6.900000000
H    -3.084000000    -0.329000000    -6.958000000
H    -2.693000000     0.752000000    -5.973000000
O    -0.893000000     5.959000000    -2.313000000
H    -1.479000000     5.702000000    -3.025000000
H    -0.957000000     5.243000000    -1.680000000
O     3.520000000     1.040000000     2.481000000
H     3.307000000     0.753000000     1.593000000
H     3.415000000     1.991000000     2.457000000
O     1.666000000     7.323000000    -2.266000000
H     0.896000000     6.803000000    -2.498000000
H     2.375000000     6.944000000    -2.786000000
O     2.604000000    -7.073000000    -0.231000000
H     3.194000000    -6.572000000    -0.794000000
H     1.729000000    -6.765000000    -0.467000000
O    -3.348000000     6.175000000    -0.386000000
H    -3.721000000     7.050000000    -0.280000000
H    -3.309000000     6.045000000    -1.334000000
O     2.983000000     3.627000000     2.652000000
H     3.726000000     4.184000000     2.419000000
H     2.232000000     4.038000000     2.225000000
O    -1.253000000     4.880000000    -6.207000000
H    -0.496000000     4.677000000    -5.657000000
H    -1.993000000     4.473000000    -5.756000000
O    -0.702000000    -1.744000000     4.985000000
H     0.199000000    -1.979000000     5.207000000
H    -1.022000000    -2.482000000     4.467000000
O    -1.305000000    -3.831000000    -2.698000000
H    -0.365000000    -3.682000000    -2.603000000
H    -1.657000000    -2.980000000    -2.962000000
O     3.270000000    -3.101000000     4.161000000
H     2.828000000    -2.403000000     4.644000000
H     3.695000000    -3.627000000     4.838000000
O     2.099000000     1.499000000     4.810000000
H     2.818000000     1.819000000     4.264000000
H     2.474000000     0.761000000     5.291000000
O     0.445000000     4.075000000     5.276000000
H    -0.023000000     3.993000000     6.107000000
H     1.369000000     4.116000000     5.524000000
O     2.520000000     6.918000000     0.412000000
H     2.557000000     5.993000000     0.171000000
H     2.075000000     7.340000000    -0.323000000
O    -2.869000000     2.605000000     3.804000000
H    -2.313000000     3.271000000     3.400000000
H    -2.261000000     1.919000000     4.080000000
O    -0.235000000    -6.074000000    -0.314000000
H    -0.738000000    -6.597000000    -0.938000000
H    -0.281000000    -5.182000000    -0.658000000
O     0.454000000     3.648000000    -4.270000000
H     1.170000000     3.033000000    -4.112000000
H    -0.238000000     3.369000000    -3.670000000
O    -2.756000000     1.229000000    -4.114000000
H    -3.540000000     1.771000000    -4.197000000
H    -2.193000000     1.712000000    -3.509000000
O     4.382000000    -3.095000000     1.562000000
H     4.250000000    -3.072000000     2.510000000
H     4.274000000    -4.017000000     1.327000000
O    -3.786000000    -4.790000000    -1.641000000
H    -2.904000000    -4.575000000    -1.943000000
H    -3.651000000    -5.418000000    -0.931000000
O    -3.576000000     2.417000000    -0.148000000
H    -4.110000000     2.759000000    -0.866000000
H    -2.741000000     2.877000000    -0.231000000
O     1.110000000    -3.413000000     6.305000000
H     0.199000000    -3.686000000     6.198000000
H     1.448000000    -3.977000000     7.001000000
