161
-3061.92907
C    -1.287000000     0.697000000     0.258000000
H    -2.264000000     1.165000000     0.345000000
C    -0.984000000    -0.644000000     0.526000000
H    -1.729000000    -1.311000000     0.950000000
C     0.293000000    -1.165000000     0.316000000
C     0.613000000    -2.556000000     0.822000000
H     0.004000000    -2.878000000     1.670000000
H     0.612000000    -3.348000000     0.070000000
H     1.635000000    -2.525000000     1.204000000
C     1.163000000    -0.369000000    -0.356000000
H     2.173000000    -0.687000000    -0.603000000
C     0.884000000     0.890000000    -0.757000000
H     1.620000000     1.409000000    -1.365000000
C    -0.355000000     1.474000000    -0.395000000
C    -0.730000000     2.890000000    -0.821000000
O     0.076000000     3.559000000    -1.446000000
O    -1.724000000     3.402000000    -0.418000000
O    -5.087000000     1.611000000    -2.504000000
H    -4.509000000     2.315000000    -2.796000000
H    -4.801000000     0.845000000    -3.002000000
O    -1.541000000     7.162000000     2.883000000
H    -0.798000000     6.572000000     3.007000000
H    -2.018000000     6.794000000     2.139000000
O    -2.296000000     2.832000000    -3.544000000
H    -2.034000000     1.913000000    -3.601000000
H    -1.507000000     3.288000000    -3.252000000
O    -3.034000000    -1.146000000     4.300000000
H    -2.866000000    -0.261000000     4.624000000
H    -2.167000000    -1.493000000     4.089000000
O    -4.000000000    -2.181000000    -0.002000000
H    -4.256000000    -2.170000000    -0.924000000
H    -4.674000000    -1.664000000     0.440000000
O     1.646000000     3.593000000     1.311000000
H     1.602000000     4.288000000     1.967000000
H     1.056000000     3.883000000     0.615000000
O    -4.419000000     4.629000000    -3.466000000
H    -3.675000000     4.055000000    -3.647000000
H    -4.054000000     5.337000000    -2.935000000
O    -0.838000000     6.042000000    -2.400000000
H    -0.451000000     5.233000000    -2.063000000
H    -0.596000000     6.056000000    -3.326000000
O     4.749000000    -0.587000000     1.048000000
H     5.466000000    -0.432000000     1.662000000
H     4.385000000     0.282000000     0.879000000
O     3.132000000    -4.906000000     0.746000000
H     3.162000000    -3.962000000     0.904000000
H     2.206000000    -5.133000000     0.832000000
O    -2.150000000    -5.692000000     0.284000000
H    -2.447000000    -5.033000000     0.911000000
H    -2.774000000    -6.411000000     0.379000000
O    -3.168000000    -3.695000000     2.055000000
H    -3.330000000    -3.180000000     1.264000000
H    -4.026000000    -3.767000000     2.473000000
O     4.285000000     2.205000000     0.960000000
H     3.473000000     2.592000000     0.632000000
H     4.958000000     2.509000000     0.350000000
O     4.819000000     0.049000000    -2.408000000
H     5.009000000    -0.298000000    -1.536000000
H     5.310000000    -0.517000000    -3.003000000
O    -1.842000000    -1.111000000    -2.299000000
H    -1.398000000    -0.538000000    -2.925000000
H    -1.688000000    -0.701000000    -1.448000000
O     2.034000000    -1.935000000    -4.800000000
H     1.789000000    -2.643000000    -4.204000000
H     2.582000000    -2.358000000    -5.461000000
O    -1.306000000    -3.956000000    -1.968000000
H    -1.583000000    -4.432000000    -1.185000000
H    -1.677000000    -3.081000000    -1.862000000
O     2.721000000     2.346000000    -6.332000000
H     1.881000000     2.785000000    -6.461000000
H     2.562000000     1.728000000    -5.619000000
O    -2.549000000     5.981000000     0.710000000
H    -2.250000000     5.286000000     0.124000000
H    -3.223000000     6.442000000     0.212000000
O     4.553000000     2.608000000    -3.283000000
H     4.706000000     1.729000000    -2.936000000
H     4.498000000     3.166000000    -2.506000000
O     2.359000000     0.646000000    -4.203000000
H     2.918000000     0.616000000    -3.427000000
H     2.284000000    -0.267000000    -4.479000000
O    -1.053000000    -3.825000000     4.190000000
H    -1.492000000    -3.791000000     3.341000000
H    -1.570000000    -4.445000000     4.703000000
O     2.247000000     4.869000000    -3.629000000
H     1.844000000     4.371000000    -2.918000000
H     2.735000000     4.217000000    -4.132000000
O     1.142000000     1.265000000     2.589000000
H     1.646000000     1.932000000     2.123000000
H     0.602000000     0.856000000     1.913000000
O    -0.357000000     5.933000000    -5.293000000
H     0.344000000     6.582000000    -5.239000000
H    -1.142000000     6.443000000    -5.490000000
O    -4.760000000     1.556000000     3.086000000
H    -3.824000000     1.711000000     2.963000000
H    -4.955000000     0.809000000     2.519000000
O     1.394000000    -3.902000000    -3.000000000
H     1.277000000    -4.712000000    -2.502000000
H     0.555000000    -3.449000000    -2.921000000
O    -6.263000000     4.543000000     1.287000000
H    -5.651000000     4.122000000     0.683000000
H    -5.759000000     4.666000000     2.091000000
O     0.266000000    -3.325000000     6.572000000
H     0.439000000    -2.384000000     6.611000000
H    -0.094000000    -3.467000000     5.696000000
O     0.491000000    -6.202000000     0.941000000
H    -0.304000000    -5.978000000     0.457000000
H     0.198000000    -6.824000000     1.608000000
O     1.325000000    -6.810000000    -2.415000000
H     0.553000000    -6.923000000    -1.860000000
H     1.848000000    -7.597000000    -2.260000000
O     2.655000000    -7.184000000     3.814000000
H     3.527000000    -7.503000000     3.581000000
H     2.708000000    -6.235000000     3.699000000
O    -5.541000000    -1.032000000     1.988000000
H    -6.300000000    -0.469000000     2.138000000
H    -5.324000000    -1.378000000     2.854000000
O     0.003000000     7.352000000     0.070000000
H    -0.697000000     6.700000000     0.050000000
H     0.067000000     7.662000000    -0.834000000
O    -0.640000000     2.576000000     4.333000000
H    -1.206000000     2.972000000     3.671000000
H    -0.040000000     2.020000000     3.835000000
O     3.757000000    -2.262000000     3.042000000
H     4.019000000    -1.639000000     2.364000000
H     4.495000000    -2.868000000     3.108000000
O     3.374000000    -0.841000000     5.626000000
H     3.480000000    -1.411000000     4.864000000
H     3.771000000    -1.328000000     6.347000000
O    -3.216000000     7.286000000    -1.916000000
H    -2.492000000     6.743000000    -2.226000000
H    -2.999000000     8.169000000    -2.214000000
O    -0.425000000     0.530000000    -3.908000000
H    -0.447000000    -0.137000000    -4.594000000
H     0.486000000     0.824000000    -3.888000000
O    -4.421000000     3.303000000    -0.444000000
H    -4.720000000     2.813000000    -1.210000000
H    -3.474000000     3.376000000    -0.562000000
O     3.824000000    -4.476000000    -1.791000000
H     3.552000000    -4.883000000    -0.969000000
H     3.016000000    -4.125000000    -2.164000000
O    -1.670000000    -4.654000000    -5.004000000
H    -1.343000000    -4.242000000    -4.205000000
H    -1.880000000    -5.550000000    -4.744000000
O     5.684000000    -2.559000000    -1.814000000
H     5.034000000    -3.247000000    -1.674000000
H     6.333000000    -2.958000000    -2.393000000
O    -2.094000000     3.301000000     2.245000000
H    -2.636000000     4.085000000     2.155000000
H    -1.798000000     3.112000000     1.354000000
O    -4.381000000    -2.105000000    -2.555000000
H    -3.534000000    -1.672000000    -2.661000000
H    -4.832000000    -1.956000000    -3.386000000
O     3.743000000     7.244000000    -3.065000000
H     4.651000000     7.025000000    -2.853000000
H     3.314000000     6.397000000    -3.183000000
O     2.091000000    -4.382000000     3.702000000
H     1.270000000    -4.154000000     3.265000000
H     2.627000000    -3.592000000     3.631000000
O    -6.937000000     1.537000000     0.201000000
H    -7.633000000     1.988000000     0.678000000
H    -6.165000000     2.089000000     0.323000000
