161
-3011.24380
C    -0.613000000     0.951000000     0.963000000
H    -1.135000000     1.553000000     1.703000000
C    -0.183000000    -0.357000000     1.309000000
H    -0.341000000    -0.773000000     2.301000000
C     0.439000000    -1.100000000     0.294000000
C     0.850000000    -2.464000000     0.550000000
H     1.809000000    -2.710000000     0.091000000
H     0.942000000    -2.586000000     1.632000000
H     0.005000000    -3.092000000     0.259000000
C     0.638000000    -0.606000000    -0.973000000
H     1.027000000    -1.261000000    -1.748000000
C     0.226000000     0.663000000    -1.297000000
H     0.371000000     1.054000000    -2.301000000
C    -0.407000000     1.456000000    -0.302000000
C    -1.062000000     2.728000000    -0.727000000
O    -1.075000000     3.058000000    -1.866000000
O    -1.496000000     3.486000000     0.115000000
O    -5.008000000    -0.966000000     0.526000000
H    -4.375000000    -1.619000000     0.228000000
H    -5.760000000    -1.077000000    -0.057000000
O    -0.823000000     7.577000000     1.590000000
H    -0.267000000     7.327000000     2.328000000
H    -1.633000000     7.086000000     1.724000000
O     6.544000000    -3.694000000    -1.417000000
H     5.993000000    -3.138000000    -1.968000000
H     5.979000000    -3.939000000    -0.683000000
O     0.277000000    -6.180000000     2.188000000
H     1.022000000    -5.708000000     2.558000000
H    -0.477000000    -5.873000000     2.691000000
O    -2.374000000     1.171000000    -6.394000000
H    -1.564000000     0.661000000    -6.372000000
H    -3.071000000     0.516000000    -6.360000000
O    -3.989000000    -3.098000000     4.729000000
H    -3.457000000    -2.302000000     4.761000000
H    -4.044000000    -3.385000000     5.641000000
O    -2.162000000     0.696000000     4.344000000
H    -2.892000000     0.417000000     3.791000000
H    -1.700000000     1.350000000     3.819000000
O     0.576000000     2.515000000    -7.296000000
H     1.220000000     1.890000000    -7.631000000
H     0.009000000     1.995000000    -6.728000000
O     1.884000000     4.109000000     2.323000000
H     0.945000000     4.288000000     2.360000000
H     1.978000000     3.466000000     1.621000000
O    -5.303000000     4.404000000    -3.104000000
H    -4.632000000     5.033000000    -2.838000000
H    -5.067000000     4.169000000    -4.001000000
O    -3.076000000     1.838000000    -2.806000000
H    -2.725000000     0.949000000    -2.866000000
H    -2.347000000     2.362000000    -2.474000000
O    -0.097000000     6.192000000    -3.870000000
H    -0.859000000     5.615000000    -3.808000000
H     0.590000000     5.735000000    -3.385000000
O     2.483000000     1.662000000     1.533000000
H     3.409000000     1.423000000     1.503000000
H     2.019000000     0.852000000     1.319000000
O    -3.437000000     3.067000000     5.599000000
H    -2.937000000     3.505000000     6.288000000
H    -2.791000000     2.537000000     5.133000000
O     5.271000000     0.039000000    -1.390000000
H     4.718000000     0.770000000    -1.668000000
H     5.245000000     0.070000000    -0.433000000
O    -5.336000000     1.125000000    -4.029000000
H    -4.586000000     1.294000000    -3.457000000
H    -5.157000000     0.266000000    -4.411000000
O     4.650000000    -4.422000000     0.834000000
H     4.600000000    -3.790000000     1.551000000
H     5.336000000    -5.034000000     1.100000000
O    -2.828000000    -4.738000000     0.769000000
H    -2.174000000    -4.465000000     1.411000000
H    -3.406000000    -5.329000000     1.252000000
O     1.197000000     4.377000000    -2.148000000
H     0.406000000     3.839000000    -2.119000000
H     1.871000000     3.834000000    -1.739000000
O    -3.479000000    -2.865000000    -1.257000000
H    -4.242000000    -3.139000000    -1.765000000
H    -3.414000000    -3.511000000    -0.554000000
O     1.252000000    -3.795000000    -3.099000000
H     0.605000000    -4.136000000    -2.480000000
H     2.095000000    -3.950000000    -2.673000000
O    -1.600000000    -6.303000000    -2.389000000
H    -2.309000000    -5.766000000    -2.037000000
H    -0.824000000    -6.024000000    -1.902000000
O     1.822000000    -1.784000000    -4.968000000
H     2.749000000    -1.987000000    -5.098000000
H     1.530000000    -2.409000000    -4.306000000
O    -1.857000000     5.791000000    -1.175000000
H    -1.786000000     4.927000000    -0.768000000
H    -1.089000000     6.268000000    -0.861000000
O     5.180000000     2.534000000    -3.785000000
H     4.417000000     2.920000000    -3.353000000
H     5.887000000     2.625000000    -3.147000000
O    -1.843000000    -4.235000000     3.238000000
H    -2.629000000    -3.913000000     3.679000000
H    -1.174000000    -3.577000000     3.430000000
O    -2.225000000    -0.976000000    -2.390000000
H    -1.516000000    -0.786000000    -1.776000000
H    -2.745000000    -1.652000000    -1.955000000
O     2.626000000     2.834000000     4.506000000
H     2.448000000     2.063000000     3.968000000
H     2.593000000     3.568000000     3.893000000
O    -2.673000000     3.898000000    -5.923000000
H    -2.683000000     4.271000000    -5.042000000
H    -2.730000000     2.953000000    -5.784000000
O    -4.439000000    -0.045000000     3.228000000
H    -5.201000000    -0.280000000     3.758000000
H    -4.671000000    -0.317000000     2.341000000
O     0.552000000    -5.637000000    -0.656000000
H     1.418000000    -6.010000000    -0.820000000
H     0.460000000    -5.657000000     0.296000000
O    -1.020000000    -1.878000000     4.593000000
H    -0.259000000    -1.826000000     5.172000000
H    -1.364000000    -0.985000000     4.570000000
O     3.083000000    -7.178000000     1.021000000
H     3.209000000    -6.253000000     1.231000000
H     2.707000000    -7.555000000     1.816000000
O    -4.400000000     6.360000000    -0.414000000
H    -3.597000000     5.958000000    -0.746000000
H    -4.226000000     6.509000000     0.515000000
O    -0.012000000     2.736000000     4.888000000
H    -0.278000000     3.275000000     4.143000000
H     0.922000000     2.916000000     4.992000000
O     3.964000000    -0.868000000     4.568000000
H     4.470000000    -0.372000000     5.212000000
H     3.220000000    -1.211000000     5.063000000
O     0.503000000     0.269000000     5.895000000
H     0.298000000     1.166000000     5.631000000
H     1.381000000     0.325000000     6.270000000
O    -2.462000000     4.743000000    -3.540000000
H    -2.366000000     5.265000000    -2.743000000
H    -2.323000000     3.840000000    -3.253000000
O     0.061000000    -0.256000000    -6.266000000
H    -0.006000000    -0.926000000    -6.947000000
H     0.595000000    -0.661000000    -5.583000000
O    -4.623000000     2.068000000     0.099000000
H    -4.220000000     1.235000000    -0.148000000
H    -4.426000000     2.655000000    -0.631000000
O     3.524000000    -4.587000000    -2.004000000
H     3.986000000    -5.364000000    -2.318000000
H     3.778000000    -4.513000000    -1.084000000
O    -3.760000000     3.254000000     2.296000000
H    -4.039000000     2.806000000     1.497000000
H    -4.577000000     3.531000000     2.712000000
O    -2.095000000    -0.101000000     6.894000000
H    -1.236000000    -0.477000000     7.086000000
H    -1.985000000     0.327000000     6.045000000
O    -0.996000000     4.032000000     2.710000000
H    -1.846000000     4.005000000     3.150000000
H    -1.210000000     4.079000000     1.778000000
O     2.176000000    -5.202000000     3.752000000
H     1.819000000    -4.893000000     4.584000000
H     3.026000000    -4.767000000     3.679000000
O    -2.944000000    -2.978000000    -4.508000000
H    -3.610000000    -3.518000000    -4.083000000
H    -2.690000000    -2.340000000    -3.840000000
O    -3.289000000     6.229000000     2.248000000
H    -3.436000000     5.283000000     2.263000000
H    -2.776000000     6.404000000     3.037000000
O     3.299000000     3.106000000    -0.992000000
H     4.102000000     3.196000000    -0.479000000
H     2.759000000     2.498000000    -0.488000000
