161
-3023.45950
C    -0.065000000     1.372000000     0.634000000
H    -0.188000000     2.376000000     1.034000000
C     0.024000000     0.152000000     1.315000000
H    -0.023000000     0.186000000     2.400000000
C     0.217000000    -1.029000000     0.660000000
C     0.075000000    -2.377000000     1.393000000
H    -0.190000000    -3.124000000     0.643000000
H     1.031000000    -2.592000000     1.876000000
H    -0.729000000    -2.345000000     2.131000000
C     0.315000000    -1.072000000    -0.736000000
H     0.417000000    -1.970000000    -1.340000000
C     0.170000000     0.145000000    -1.438000000
H     0.220000000     0.240000000    -2.520000000
C     0.016000000     1.342000000    -0.727000000
C    -0.386000000     2.555000000    -1.531000000
O     0.052000000     2.671000000    -2.693000000
O    -0.960000000     3.470000000    -1.098000000
O    -4.440000000    -1.537000000    -2.049000000
H    -3.596000000    -1.463000000    -2.495000000
H    -4.939000000    -2.157000000    -2.580000000
O     0.440000000     4.900000000     0.978000000
H    -0.108000000     5.222000000     1.694000000
H    -0.178000000     4.510000000     0.360000000
O     2.221000000     2.257000000     5.656000000
H     2.112000000     2.527000000     4.744000000
H     1.667000000     1.481000000     5.744000000
O    -0.144000000    -4.831000000    -1.838000000
H     0.092000000    -5.057000000    -0.938000000
H    -1.050000000    -4.531000000    -1.781000000
O    -1.489000000     7.694000000     0.843000000
H    -1.811000000     6.794000000     0.898000000
H    -2.007000000     8.090000000     0.143000000
O    -4.947000000     2.803000000     2.806000000
H    -5.342000000     3.386000000     2.158000000
H    -4.203000000     2.409000000     2.351000000
O    -0.721000000     4.663000000     3.708000000
H    -1.578000000     4.912000000     4.054000000
H    -0.393000000     4.011000000     4.327000000
O     2.488000000     5.003000000    -1.067000000
H     2.679000000     5.940000000    -1.124000000
H     1.981000000     4.911000000    -0.260000000
O     3.361000000     1.508000000     0.850000000
H     3.192000000     0.674000000     0.412000000
H     3.512000000     2.127000000     0.135000000
O     0.625000000    -2.881000000    -3.725000000
H     0.358000000    -3.573000000    -3.120000000
H     1.555000000    -2.750000000    -3.543000000
O    -2.723000000     5.459000000    -1.641000000
H    -1.952000000     4.920000000    -1.464000000
H    -3.370000000     5.169000000    -0.998000000
O    -0.571000000     2.947000000     5.979000000
H     0.188000000     2.886000000     6.560000000
H    -1.095000000     3.660000000     6.345000000
O    -2.480000000    -3.613000000     3.296000000
H    -2.888000000    -3.171000000     4.041000000
H    -3.041000000    -3.395000000     2.552000000
O     2.133000000     2.735000000     2.820000000
H     1.647000000     3.295000000     2.214000000
H     2.696000000     2.204000000     2.256000000
O    -0.963000000     1.364000000    -4.756000000
H    -0.702000000     1.895000000    -4.003000000
H    -1.231000000     0.527000000    -4.377000000
O     2.369000000    -0.252000000    -6.055000000
H     2.583000000     0.051000000    -6.938000000
H     3.199000000    -0.577000000    -5.706000000
O     0.699000000    -5.659000000     0.665000000
H     0.772000000    -5.487000000     1.604000000
H     1.557000000    -6.006000000     0.418000000
O    -1.402000000    -6.991000000     0.807000000
H    -1.010000000    -7.568000000     1.462000000
H    -0.691000000    -6.405000000     0.547000000
O     0.486000000    -0.019000000     5.062000000
H     1.156000000     0.129000000     4.394000000
H    -0.334000000     0.236000000     4.639000000
O     2.213000000    -5.514000000    -3.600000000
H     2.233000000    -5.553000000    -2.644000000
H     1.334000000    -5.199000000    -3.809000000
O     3.906000000     2.875000000    -1.678000000
H     3.480000000     2.504000000    -2.451000000
H     3.325000000     3.583000000    -1.401000000
O     4.383000000     2.716000000    -4.730000000
H     3.599000000     2.230000000    -4.475000000
H     4.593000000     2.391000000    -5.606000000
O    -2.337000000     0.709000000     5.383000000
H    -2.757000000     0.446000000     6.202000000
H    -1.564000000     1.202000000     5.658000000
O     2.059000000     1.709000000    -4.106000000
H     1.671000000     0.962000000    -4.562000000
H     1.421000000     1.935000000    -3.429000000
O    -3.352000000     3.217000000     0.209000000
H    -3.890000000     2.548000000    -0.215000000
H    -2.538000000     3.223000000    -0.293000000
O     1.973000000    -5.271000000     4.324000000
H     2.339000000    -6.137000000     4.505000000
H     1.040000000    -5.431000000     4.179000000
O     2.855000000    -0.434000000     2.948000000
H     3.305000000     0.233000000     2.430000000
H     2.840000000    -1.207000000     2.382000000
O    -4.824000000    -2.783000000     1.450000000
H    -4.508000000    -2.586000000     0.568000000
H    -4.888000000    -3.738000000     1.475000000
O    -0.843000000     7.012000000    -2.927000000
H    -0.078000000     6.442000000    -2.851000000
H    -1.560000000     6.501000000    -2.550000000
O     1.779000000    -2.909000000     5.493000000
H     1.939000000    -3.716000000     5.004000000
H     1.841000000    -2.214000000     4.838000000
O    -0.584000000    -5.863000000     3.585000000
H    -1.304000000    -5.249000000     3.440000000
H    -1.015000000    -6.703000000     3.743000000
O    -4.111000000    -1.389000000     4.982000000
H    -4.820000000    -1.126000000     4.396000000
H    -3.439000000    -0.718000000     4.861000000
O     1.507000000     6.540000000     3.662000000
H     0.978000000     5.770000000     3.871000000
H     2.303000000     6.183000000     3.269000000
O     0.274000000    -2.102000000    -6.434000000
H     0.370000000    -2.572000000    -5.606000000
H     0.660000000    -1.242000000    -6.268000000
O    -3.596000000    -5.035000000    -1.525000000
H    -4.508000000    -4.773000000    -1.398000000
H    -3.419000000    -5.644000000    -0.808000000
O     1.925000000     6.163000000    -6.082000000
H     1.478000000     5.321000000    -6.178000000
H     1.227000000     6.780000000    -5.859000000
O    -3.200000000     5.355000000    -4.467000000
H    -2.641000000     4.694000000    -4.877000000
H    -2.923000000     5.366000000    -3.551000000
O    -0.346000000    -1.515000000     7.309000000
H    -0.158000000    -1.141000000     6.448000000
H     0.188000000    -2.308000000     7.347000000
O    -3.063000000     3.019000000    -6.259000000
H    -3.919000000     2.767000000    -5.912000000
H    -2.441000000     2.471000000    -5.781000000
O    -1.957000000    -1.420000000    -3.784000000
H    -1.182000000    -1.925000000    -3.537000000
H    -2.446000000    -2.001000000    -4.366000000
O    -3.522000000     0.536000000     1.878000000
H    -2.625000000     0.214000000     1.798000000
H    -3.841000000     0.582000000     0.977000000
O     4.557000000    -3.484000000     0.975000000
H     4.225000000    -4.345000000     1.231000000
H     5.345000000    -3.674000000     0.466000000
O     3.695000000     4.987000000     2.608000000
H     3.775000000     5.469000000     3.432000000
H     3.596000000     4.073000000     2.874000000
O    -2.916000000     5.373000000     1.699000000
H    -2.993000000     5.288000000     2.649000000
H    -2.727000000     4.485000000     1.393000000
O     0.234000000     4.148000000    -5.820000000
H     0.381000000     3.206000000    -5.909000000
H     0.317000000     4.314000000    -4.881000000
O     3.566000000    -2.554000000    -3.258000000
H     4.217000000    -3.219000000    -3.032000000
H     3.982000000    -1.723000000    -3.027000000
O     1.008000000     5.017000000    -3.228000000
H     1.586000000     5.182000000    -2.483000000
H     0.746000000     4.101000000    -3.128000000
O     3.282000000    -1.243000000     0.046000000
H     3.558000000    -2.129000000     0.282000000
H     2.774000000    -1.357000000    -0.757000000
