161
-3037.31291
C    -1.006000000     0.716000000     0.844000000
H    -1.611000000     1.327000000     1.510000000
C    -0.067000000    -0.210000000     1.298000000
H    -0.017000000    -0.409000000     2.365000000
C     0.842000000    -0.857000000     0.396000000
C     1.793000000    -1.905000000     0.907000000
H     1.194000000    -2.698000000     1.361000000
H     2.447000000    -2.401000000     0.187000000
H     2.493000000    -1.507000000     1.644000000
C     0.685000000    -0.583000000    -0.920000000
H     1.290000000    -1.086000000    -1.670000000
C    -0.240000000     0.408000000    -1.411000000
H    -0.269000000     0.686000000    -2.461000000
C    -1.049000000     1.094000000    -0.544000000
C    -1.863000000     2.263000000    -1.024000000
O    -1.860000000     2.578000000    -2.164000000
O    -2.759000000     2.591000000    -0.318000000
O     1.393000000     2.861000000     3.213000000
H     1.596000000     2.080000000     3.729000000
H     1.889000000     2.747000000     2.402000000
O    -1.885000000    -2.527000000    -0.504000000
H    -1.386000000    -1.790000000    -0.857000000
H    -2.795000000    -2.328000000    -0.724000000
O    -4.235000000     4.009000000     3.507000000
H    -4.633000000     4.823000000     3.817000000
H    -3.491000000     3.868000000     4.093000000
O     3.317000000    -1.979000000    -3.577000000
H     4.057000000    -2.056000000    -4.179000000
H     3.701000000    -1.642000000    -2.767000000
O     2.700000000     1.987000000    -1.328000000
H     2.988000000     2.547000000    -0.608000000
H     1.793000000     1.767000000    -1.114000000
O    -4.570000000    -0.456000000    -3.471000000
H    -4.774000000    -0.940000000    -4.271000000
H    -3.718000000    -0.057000000    -3.643000000
O    -1.134000000     4.220000000    -5.461000000
H    -0.460000000     4.637000000    -5.997000000
H    -1.949000000     4.647000000    -5.727000000
O     4.633000000     0.307000000     0.029000000
H     4.602000000    -0.578000000    -0.335000000
H     3.840000000     0.729000000    -0.300000000
O    -1.064000000     3.589000000     4.195000000
H    -0.979000000     3.587000000     5.149000000
H    -0.287000000     3.124000000     3.885000000
O    -6.409000000     0.912000000    -2.055000000
H    -6.769000000     0.150000000    -1.602000000
H    -5.650000000     0.573000000    -2.529000000
O     4.809000000    -5.108000000     1.911000000
H     5.526000000    -5.693000000     2.155000000
H     4.508000000    -4.738000000     2.741000000
O    -2.349000000     0.992000000    -4.450000000
H    -2.161000000     1.426000000    -3.618000000
H    -1.872000000     1.505000000    -5.101000000
O     3.136000000     4.456000000    -2.770000000
H     2.845000000     3.720000000    -2.231000000
H     3.917000000     4.785000000    -2.324000000
O     1.861000000    -4.479000000    -3.418000000
H     2.404000000    -3.703000000    -3.282000000
H     1.787000000    -4.875000000    -2.549000000
O     1.642000000    -6.209000000    -1.219000000
H     0.944000000    -6.851000000    -1.354000000
H     2.450000000    -6.720000000    -1.270000000
O     0.238000000     5.235000000     1.998000000
H     0.260000000     4.770000000     2.834000000
H    -0.685000000     5.228000000     1.744000000
O     0.049000000    -3.477000000    -5.237000000
H     0.549000000    -3.750000000    -4.468000000
H    -0.029000000    -2.527000000    -5.146000000
O     3.159000000    -7.284000000     1.882000000
H     2.297000000    -6.960000000     1.620000000
H     3.752000000    -6.551000000     1.713000000
O    -0.724000000     4.975000000    -2.538000000
H    -1.115000000     4.226000000    -2.089000000
H    -0.811000000     4.769000000    -3.469000000
O    -4.377000000     4.095000000    -2.593000000
H    -4.471000000     3.783000000    -1.693000000
H    -3.441000000     4.014000000    -2.778000000
O     4.960000000    -1.889000000    -1.287000000
H     4.924000000    -2.777000000    -0.932000000
H     5.842000000    -1.814000000    -1.653000000
O    -3.464000000     0.903000000     3.723000000
H    -3.735000000     0.364000000     2.980000000
H    -3.743000000     1.788000000     3.491000000
O    -1.350000000    -5.648000000    -0.087000000
H    -1.644000000    -4.747000000    -0.225000000
H    -1.439000000    -6.063000000    -0.945000000
O     0.068000000     1.930000000    -5.408000000
H    -0.177000000     2.850000000    -5.313000000
H     0.295000000     1.837000000    -6.333000000
O     4.914000000     1.952000000     2.327000000
H     4.889000000     1.347000000     1.586000000
H     5.376000000     1.470000000     3.014000000
O     3.734000000    -4.256000000     4.545000000
H     2.779000000    -4.277000000     4.482000000
H     3.942000000    -3.340000000     4.728000000
O    -0.452000000    -2.699000000     5.405000000
H    -0.208000000    -2.970000000     4.520000000
H    -1.177000000    -2.087000000     5.277000000
O    -4.638000000    -0.478000000     1.501000000
H    -4.648000000    -0.541000000     0.546000000
H    -4.619000000    -1.386000000     1.801000000
O     3.664000000    -4.446000000    -0.744000000
H     2.777000000    -4.806000000    -0.721000000
H     3.949000000    -4.453000000     0.170000000
O     4.519000000     1.020000000    -3.116000000
H     3.990000000     0.874000000    -3.900000000
H     3.925000000     1.452000000    -2.503000000
O    -6.381000000     5.423000000    -0.571000000
H    -7.141000000     5.600000000    -0.016000000
H    -6.191000000     4.496000000    -0.429000000
O     0.592000000    -6.770000000     1.616000000
H    -0.135000000    -6.404000000     1.113000000
H     0.197000000    -7.472000000     2.133000000
O    -0.343000000     1.351000000     6.245000000
H     0.422000000     1.339000000     5.669000000
H    -0.037000000     1.788000000     7.040000000
O     1.341000000     6.726000000    -2.507000000
H     0.759000000     6.009000000    -2.255000000
H     2.161000000     6.296000000    -2.747000000
O    -2.159000000     7.220000000    -2.778000000
H    -2.696000000     7.263000000    -1.987000000
H    -1.603000000     6.452000000    -2.650000000
O     1.962000000     0.704000000     4.602000000
H     1.825000000    -0.158000000     4.996000000
H     2.773000000     1.022000000     4.999000000
O     1.825000000    -1.519000000     6.452000000
H     2.296000000    -2.341000000     6.589000000
H     0.920000000    -1.786000000     6.293000000
O    -4.725000000     2.583000000    -4.935000000
H    -4.985000000     3.112000000    -4.182000000
H    -4.190000000     1.882000000    -4.563000000
O    -5.428000000     2.703000000    -0.193000000
H    -5.714000000     2.145000000    -0.916000000
H    -4.511000000     2.468000000    -0.056000000
O     4.991000000    -4.662000000    -3.018000000
H     5.835000000    -4.947000000    -2.666000000
H     4.401000000    -4.674000000    -2.264000000
O     4.671000000    -1.613000000     5.242000000
H     5.073000000    -1.713000000     6.105000000
H     4.340000000    -0.715000000     5.233000000
O    -6.311000000     2.910000000     2.454000000
H    -5.547000000     3.384000000     2.782000000
H    -6.050000000     2.609000000     1.583000000
O    -2.025000000    -0.637000000     5.551000000
H    -2.581000000    -0.202000000     4.904000000
H    -1.360000000     0.015000000     5.772000000
O    -2.390000000     4.898000000     1.285000000
H    -2.983000000     4.631000000     1.987000000
H    -2.514000000     4.237000000     0.603000000
O     1.156000000    -4.950000000     3.898000000
H     1.090000000    -4.924000000     2.943000000
H     0.689000000    -5.748000000     4.148000000
O    -0.642000000    -0.873000000    -5.347000000
H    -0.101000000    -0.139000000    -5.637000000
H    -1.374000000    -0.465000000    -4.885000000
O    -3.665000000     6.609000000    -0.705000000
H    -4.392000000     6.097000000    -0.351000000
H    -2.958000000     6.493000000    -0.069000000
O     2.165000000     0.671000000    -4.493000000
H     1.993000000    -0.216000000    -4.178000000
H     1.318000000     1.115000000    -4.435000000
