161
-3044.15429
C    -1.379000000    -0.590000000     0.204000000
H    -2.312000000    -1.011000000     0.570000000
C    -0.159000000    -1.097000000     0.677000000
H    -0.314000000    -1.972000000     1.304000000
C     1.037000000    -0.488000000     0.425000000
C     2.262000000    -1.022000000     1.032000000
H     2.157000000    -1.193000000     2.105000000
H     2.622000000    -1.893000000     0.482000000
H     2.999000000    -0.216000000     1.028000000
C     1.088000000     0.699000000    -0.294000000
H     1.977000000     1.311000000    -0.416000000
C    -0.060000000     1.171000000    -0.931000000
H     0.024000000     2.078000000    -1.525000000
C    -1.315000000     0.549000000    -0.579000000
C    -2.528000000     1.052000000    -1.242000000
O    -2.580000000     2.252000000    -1.522000000
O    -3.527000000     0.375000000    -1.310000000
O    -3.313000000     0.033000000     3.689000000
H    -3.791000000    -0.796000000     3.709000000
H    -3.683000000     0.505000000     2.943000000
O     4.845000000     1.767000000     0.215000000
H     5.412000000     2.507000000    -0.003000000
H     3.965000000     2.142000000     0.256000000
O     2.764000000    -4.084000000    -1.390000000
H     3.367000000    -3.924000000    -2.116000000
H     3.275000000    -4.597000000    -0.764000000
O    -4.666000000     3.940000000    -1.611000000
H    -5.202000000     3.791000000    -2.389000000
H    -3.949000000     3.311000000    -1.690000000
O     3.630000000     3.566000000    -2.447000000
H     3.918000000     4.474000000    -2.354000000
H     3.317000000     3.323000000    -1.575000000
O    -2.119000000     0.666000000    -5.157000000
H    -2.758000000     0.461000000    -5.839000000
H    -2.406000000     1.510000000    -4.807000000
O    -4.437000000    -2.767000000     1.152000000
H    -3.607000000    -3.170000000     0.896000000
H    -4.378000000    -2.682000000     2.104000000
O     7.176000000    -3.704000000     1.735000000
H     6.877000000    -4.608000000     1.635000000
H     6.608000000    -3.198000000     1.154000000
O     0.814000000    -4.251000000     1.555000000
H     1.305000000    -3.703000000     2.168000000
H     1.487000000    -4.717000000     1.059000000
O    -5.541000000     3.763000000     0.959000000
H    -5.092000000     3.884000000     0.122000000
H    -5.002000000     3.127000000     1.429000000
O     1.216000000    -3.153000000     5.432000000
H     1.463000000    -4.078000000     5.443000000
H     0.891000000    -2.981000000     6.316000000
O     1.145000000     3.449000000    -3.766000000
H     1.955000000     3.534000000    -3.262000000
H     0.962000000     2.509000000    -3.766000000
O    -4.097000000    -2.537000000     3.837000000
H    -3.266000000    -2.778000000     4.247000000
H    -4.754000000    -3.052000000     4.306000000
O     5.143000000    -0.027000000    -1.624000000
H     4.240000000    -0.109000000    -1.933000000
H     5.082000000     0.545000000    -0.858000000
O    -5.511000000    -1.451000000    -0.944000000
H    -5.287000000    -2.007000000    -0.198000000
H    -4.763000000    -0.861000000    -1.037000000
O     1.486000000     6.417000000    -3.822000000
H     1.120000000     5.591000000    -3.506000000
H     1.826000000     6.845000000    -3.036000000
O    -2.449000000    -3.698000000    -0.454000000
H    -2.284000000    -3.271000000    -1.295000000
H    -2.199000000    -4.611000000    -0.596000000
O    -2.983000000    -1.912000000    -3.016000000
H    -3.875000000    -2.101000000    -3.308000000
H    -3.067000000    -1.119000000    -2.487000000
O     1.427000000    -2.973000000    -4.218000000
H     1.668000000    -3.875000000    -4.430000000
H     0.932000000    -3.043000000    -3.402000000
O     0.636000000     5.043000000     1.407000000
H    -0.064000000     5.024000000     0.755000000
H     0.989000000     5.932000000     1.353000000
O    -1.477000000     6.402000000    -3.091000000
H    -0.828000000     6.805000000    -3.667000000
H    -2.098000000     5.982000000    -3.686000000
O    -1.757000000     3.380000000    -3.608000000
H    -1.988000000     2.812000000    -2.874000000
H    -0.821000000     3.547000000    -3.497000000
O     0.286000000    -4.013000000    -1.862000000
H     1.231000000    -4.071000000    -1.720000000
H    -0.064000000    -3.720000000    -1.021000000
O     2.045000000    -6.745000000     2.833000000
H     1.472000000    -6.876000000     2.078000000
H     2.099000000    -5.795000000     2.932000000
O     1.545000000     3.154000000    -6.673000000
H     1.779000000     2.431000000    -7.254000000
H     1.574000000     2.775000000    -5.795000000
O     4.131000000    -4.898000000     0.964000000
H     3.897000000    -4.672000000     1.864000000
H     4.976000000    -5.341000000     1.040000000
O    -1.703000000    -4.637000000     2.639000000
H    -0.854000000    -4.477000000     2.228000000
H    -2.121000000    -5.290000000     2.079000000
O     2.810000000    -0.635000000    -2.856000000
H     2.788000000    -1.294000000    -3.549000000
H     2.106000000    -0.027000000    -3.080000000
O    -6.790000000     3.147000000    -4.005000000
H    -7.634000000     2.696000000    -3.989000000
H    -6.149000000     2.463000000    -3.812000000
O    -2.788000000     6.081000000     1.305000000
H    -2.356000000     5.505000000     0.674000000
H    -2.440000000     6.952000000     1.111000000
O     5.633000000    -2.389000000    -0.204000000
H     4.777000000    -2.754000000    -0.430000000
H     5.464000000    -1.460000000    -0.051000000
O    -5.049000000     1.037000000     1.057000000
H    -5.886000000     0.595000000     0.915000000
H    -4.561000000     0.891000000     0.247000000
O     6.818000000    -2.164000000    -2.979000000
H     6.308000000    -1.918000000    -2.207000000
H     6.876000000    -1.359000000    -3.494000000
O    -5.286000000    -4.859000000    -2.027000000
H    -4.850000000    -4.227000000    -1.455000000
H    -5.257000000    -4.457000000    -2.895000000
O    -5.158000000    -0.646000000    -4.940000000
H    -5.490000000    -0.671000000    -5.837000000
H    -5.258000000    -1.543000000    -4.623000000
O    -3.536000000     5.075000000    -4.583000000
H    -4.203000000     4.769000000    -5.197000000
H    -3.135000000     4.274000000    -4.246000000
O     2.981000000    -1.233000000     6.255000000
H     2.296000000    -1.795000000     5.894000000
H     2.506000000    -0.562000000     6.746000000
O    -7.969000000     1.436000000    -1.129000000
H    -7.022000000     1.295000000    -1.143000000
H    -8.338000000     0.567000000    -0.970000000
O     5.399000000     0.431000000     2.857000000
H     6.281000000     0.801000000     2.904000000
H     5.032000000     0.788000000     2.048000000
O     1.001000000     3.395000000     3.719000000
H     0.564000000     2.543000000     3.684000000
H     0.699000000     3.851000000     2.933000000
O    -0.606000000     1.036000000     3.311000000
H    -0.321000000     0.718000000     2.454000000
H    -1.342000000     0.470000000     3.544000000
O     3.061000000    -4.041000000     3.377000000
H     3.061000000    -4.299000000     4.298000000
H     3.541000000    -3.213000000     3.360000000
O     3.043000000     3.763000000     0.356000000
H     3.588000000     4.549000000     0.401000000
H     2.306000000     3.949000000     0.939000000
O     0.743000000     0.822000000    -4.124000000
H    -0.192000000     0.618000000    -4.122000000
H     1.063000000     0.474000000    -4.956000000
O    -1.207000000    -1.382000000     5.794000000
H    -1.695000000    -2.152000000     6.086000000
H    -0.534000000    -1.732000000     5.210000000
O    -4.823000000     1.592000000    -3.285000000
H    -4.335000000     1.333000000    -2.502000000
H    -4.820000000     0.810000000    -3.837000000
O     4.505000000    -1.878000000     4.132000000
H     4.955000000    -1.132000000     3.735000000
H     4.569000000    -1.723000000     5.074000000
O    -1.436000000     4.843000000    -0.751000000
H    -1.325000000     5.340000000    -1.562000000
H    -1.807000000     4.006000000    -1.033000000
