161
-3049.21293
C    -0.556000000     1.029000000    -0.941000000
H    -1.116000000     1.774000000    -1.500000000
C    -1.208000000     0.447000000     0.150000000
H    -2.237000000     0.736000000     0.348000000
C    -0.643000000    -0.564000000     0.883000000
C    -1.356000000    -1.180000000     2.003000000
H    -1.127000000    -2.248000000     1.986000000
H    -1.128000000    -0.673000000     2.943000000
H    -2.443000000    -1.211000000     1.906000000
C     0.633000000    -0.937000000     0.588000000
H     1.139000000    -1.716000000     1.154000000
C     1.370000000    -0.302000000    -0.403000000
H     2.345000000    -0.689000000    -0.688000000
C     0.796000000     0.690000000    -1.107000000
C     1.612000000     1.377000000    -2.203000000
O     2.722000000     0.996000000    -2.507000000
O     1.201000000     2.469000000    -2.604000000
O     1.152000000     2.722000000     1.764000000
H     0.308000000     3.155000000     1.632000000
H     0.974000000     1.796000000     1.603000000
O    -1.065000000     6.166000000    -2.207000000
H    -1.995000000     5.952000000    -2.280000000
H    -1.049000000     7.025000000    -1.786000000
O     1.045000000    -4.258000000    -3.080000000
H     0.673000000    -3.376000000    -3.108000000
H     1.986000000    -4.125000000    -3.193000000
O    -0.763000000     2.082000000    -7.021000000
H    -1.621000000     2.072000000    -6.598000000
H    -0.385000000     2.928000000    -6.779000000
O    -1.322000000     1.198000000     5.598000000
H    -0.979000000     0.306000000     5.646000000
H    -0.689000000     1.725000000     6.086000000
O    -3.012000000    -4.581000000    -1.561000000
H    -3.962000000    -4.648000000    -1.466000000
H    -2.818000000    -3.661000000    -1.385000000
O     3.841000000    -1.058000000     2.814000000
H     2.928000000    -1.328000000     2.912000000
H     3.816000000    -0.369000000     2.149000000
O     0.739000000    -4.357000000     2.047000000
H     1.119000000    -4.191000000     1.184000000
H     1.009000000    -3.606000000     2.576000000
O     2.261000000    -6.336000000     2.831000000
H     3.046000000    -5.926000000     3.195000000
H     1.649000000    -5.611000000     2.703000000
O    -0.390000000    -1.903000000    -2.395000000
H    -0.643000000    -1.565000000    -1.536000000
H    -1.115000000    -1.662000000    -2.971000000
O     5.157000000     2.823000000    -4.693000000
H     4.795000000     3.091000000    -5.537000000
H     4.596000000     3.248000000    -4.045000000
O     6.489000000    -0.358000000    -0.835000000
H     5.998000000     0.396000000    -1.163000000
H     7.368000000    -0.247000000    -1.198000000
O    -1.564000000    -5.010000000     3.694000000
H    -1.989000000    -5.764000000     3.287000000
H    -0.947000000    -4.696000000     3.034000000
O    -3.146000000    -3.040000000     5.439000000
H    -2.671000000    -3.548000000     4.781000000
H    -4.018000000    -2.918000000     5.063000000
O    -1.569000000     3.391000000     2.454000000
H    -2.267000000     3.323000000     3.105000000
H    -1.701000000     2.634000000     1.883000000
O     4.116000000     0.978000000     0.835000000
H     3.720000000     1.060000000    -0.033000000
H     4.806000000     1.641000000     0.848000000
O     4.054000000    -4.127000000     2.240000000
H     3.990000000    -3.193000000     2.441000000
H     3.614000000    -4.221000000     1.396000000
O    -4.986000000     1.946000000     1.657000000
H    -4.389000000     2.198000000     2.361000000
H    -5.858000000     2.137000000     2.003000000
O     4.431000000    -0.746000000    -3.933000000
H     3.998000000    -0.131000000    -3.342000000
H     5.311000000    -0.387000000    -4.049000000
O    -0.651000000    -1.561000000     5.624000000
H    -0.231000000    -2.133000000     6.266000000
H    -1.574000000    -1.814000000     5.646000000
O     1.972000000     0.925000000    -5.209000000
H     1.158000000     1.301000000    -4.872000000
H     2.592000000     1.010000000    -4.485000000
O     3.431000000     3.798000000     0.128000000
H     3.195000000     3.659000000    -0.789000000
H     2.676000000     3.479000000     0.621000000
O     3.297000000     3.945000000    -3.049000000
H     2.942000000     4.831000000    -3.118000000
H     2.527000000     3.386000000    -2.942000000
O    -4.533000000     2.975000000    -0.766000000
H    -4.688000000     2.585000000     0.094000000
H    -4.769000000     3.897000000    -0.657000000
O    -5.236000000    -4.027000000     0.699000000
H    -5.235000000    -4.818000000     1.237000000
H    -6.163000000    -3.812000000     0.590000000
O     1.604000000    -2.166000000     3.745000000
H     0.922000000    -1.729000000     4.255000000
H     2.236000000    -2.468000000     4.397000000
O    -3.385000000     2.482000000     4.163000000
H    -2.672000000     2.093000000     4.669000000
H    -3.990000000     2.822000000     4.822000000
O     0.295000000     4.583000000    -4.000000000
H     0.547000000     3.722000000    -3.665000000
H    -0.349000000     4.905000000    -3.370000000
O    -6.359000000    -0.609000000     1.145000000
H    -5.835000000     0.180000000     1.282000000
H    -6.981000000    -0.368000000     0.460000000
O     3.575000000     0.984000000    -7.302000000
H     3.194000000     0.922000000    -6.426000000
H     3.339000000     0.159000000    -7.725000000
O    -3.076000000     3.071000000    -3.193000000
H    -3.420000000     2.508000000    -2.499000000
H    -3.445000000     3.934000000    -3.006000000
O    -4.398000000     0.964000000     6.882000000
H    -4.390000000     0.184000000     7.437000000
H    -3.806000000     0.751000000     6.160000000
O    -2.338000000    -1.564000000    -4.161000000
H    -2.500000000    -2.446000000    -4.495000000
H    -3.137000000    -1.337000000    -3.685000000
O     0.461000000     4.539000000    -0.780000000
H    -0.125000000     4.983000000    -1.393000000
H     0.639000000     3.692000000    -1.190000000
O     2.666000000    -4.713000000    -0.134000000
H     2.501000000    -4.184000000    -0.915000000
H     3.071000000    -5.513000000    -0.468000000
O    -0.131000000    -0.988000000    -5.864000000
H    -1.020000000    -0.865000000    -5.531000000
H     0.157000000    -0.108000000    -6.108000000
O    -4.539000000    -0.681000000    -2.930000000
H    -4.623000000    -1.080000000    -2.063000000
H    -5.432000000    -0.436000000    -3.169000000
O     5.794000000     2.029000000    -1.847000000
H     5.387000000     2.152000000    -2.705000000
H     5.922000000     2.917000000    -1.513000000
O     7.188000000    -0.339000000     1.755000000
H     6.500000000    -0.265000000     1.094000000
H     7.088000000    -1.224000000     2.107000000
O    -3.683000000    -2.178000000    -0.396000000
H    -3.123000000    -1.748000000     0.249000000
H    -4.257000000    -2.742000000     0.122000000
O     2.486000000    -2.073000000    -5.516000000
H     2.736000000    -1.326000000    -4.972000000
H     1.532000000    -2.020000000    -5.571000000
O     3.094000000     1.804000000     3.626000000
H     2.632000000     2.170000000     2.872000000
H     4.007000000     2.059000000     3.493000000
O     2.337000000     6.572000000    -3.426000000
H     2.595000000     6.870000000    -4.299000000
H     1.475000000     6.175000000    -3.554000000
O    -5.518000000    -2.444000000     3.471000000
H    -5.013000000    -3.176000000     3.116000000
H    -5.784000000    -1.941000000     2.702000000
O    -3.093000000     1.203000000    -5.295000000
H    -3.372000000     0.430000000    -4.805000000
H    -3.033000000     1.895000000    -4.637000000
O     1.146000000     4.565000000    -6.468000000
H     1.583000000     5.411000000    -6.567000000
H     0.877000000     4.541000000    -5.550000000
O     3.812000000    -3.409000000    -3.212000000
H     3.850000000    -2.493000000    -3.484000000
H     3.920000000    -3.905000000    -4.023000000
O     7.170000000     0.955000000    -5.467000000
H     7.251000000     1.293000000    -6.359000000
H     6.378000000     1.368000000    -5.125000000
