161
-3038.52256
C    -1.220000000    -0.132000000    -0.931000000
H    -2.094000000    -0.187000000    -1.575000000
C    -1.096000000     0.714000000     0.199000000
H    -1.978000000     1.302000000     0.439000000
C     0.063000000     0.771000000     0.997000000
C     0.081000000     1.565000000     2.225000000
H     0.443000000     0.988000000     3.079000000
H     0.759000000     2.418000000     2.155000000
H    -0.878000000     2.020000000     2.480000000
C     1.151000000    -0.001000000     0.582000000
H     2.091000000     0.037000000     1.126000000
C     1.163000000    -0.739000000    -0.538000000
H     1.958000000    -1.397000000    -0.880000000
C    -0.061000000    -0.949000000    -1.246000000
C    -0.132000000    -1.923000000    -2.386000000
O     0.947000000    -2.212000000    -2.916000000
O    -1.201000000    -2.279000000    -2.808000000
O     5.295000000    -0.092000000     1.337000000
H     4.565000000     0.527000000     1.363000000
H     5.830000000     0.199000000     0.599000000
O    -7.182000000     0.498000000    -3.248000000
H    -6.661000000     0.722000000    -4.020000000
H    -6.591000000    -0.021000000    -2.703000000
O     2.126000000     3.125000000    -0.804000000
H     1.964000000     2.922000000    -1.725000000
H     1.316000000     3.537000000    -0.503000000
O     3.810000000     6.267000000     2.144000000
H     4.318000000     6.229000000     2.955000000
H     2.927000000     6.005000000     2.403000000
O    -1.836000000     5.452000000     4.370000000
H    -2.670000000     5.448000000     4.839000000
H    -1.288000000     6.065000000     4.861000000
O    -0.143000000    -6.382000000     0.429000000
H    -0.075000000    -5.995000000    -0.443000000
H    -0.885000000    -6.983000000     0.367000000
O     5.037000000     0.890000000    -2.671000000
H     4.424000000     0.156000000    -2.626000000
H     5.379000000     0.971000000    -1.781000000
O     4.693000000    -1.534000000     3.945000000
H     4.638000000    -2.343000000     3.436000000
H     5.010000000    -0.880000000     3.321000000
O    -2.230000000    -5.926000000    -5.615000000
H    -2.575000000    -5.168000000    -5.142000000
H    -1.887000000    -6.500000000    -4.931000000
O    -2.075000000    -1.717000000     1.442000000
H    -1.803000000    -1.354000000     0.600000000
H    -1.408000000    -1.418000000     2.059000000
O     1.661000000    -1.634000000    -5.564000000
H     1.235000000    -1.835000000    -4.731000000
H     2.544000000    -1.357000000    -5.321000000
O    -1.503000000     4.740000000     1.789000000
H    -2.447000000     4.876000000     1.874000000
H    -1.204000000     4.573000000     2.683000000
O    -5.142000000     1.995000000    -0.582000000
H    -4.606000000     1.922000000    -1.372000000
H    -5.802000000     2.653000000    -0.800000000
O     4.542000000    -2.866000000     1.681000000
H     4.648000000    -2.012000000     1.262000000
H     3.882000000    -3.312000000     1.151000000
O     2.215000000    -4.276000000     1.154000000
H     2.271000000    -3.939000000     2.048000000
H     1.318000000    -4.604000000     1.078000000
O     1.725000000    -4.087000000    -7.311000000
H     1.590000000    -3.233000000    -6.900000000
H     0.842000000    -4.410000000    -7.488000000
O     0.508000000     3.527000000     5.131000000
H     0.030000000     2.698000000     5.167000000
H     0.477000000     3.861000000     6.028000000
O    -1.413000000    -2.061000000    -7.089000000
H    -1.829000000    -2.492000000    -6.343000000
H    -0.787000000    -2.705000000    -7.420000000
O     1.860000000     1.898000000    -3.450000000
H     1.441000000     1.113000000    -3.801000000
H     2.675000000     1.580000000    -3.062000000
O    -1.234000000     1.220000000     5.195000000
H    -1.447000000     1.438000000     4.288000000
H    -2.079000000     1.023000000     5.599000000
O     3.703000000     2.248000000     1.198000000
H     3.017000000     2.517000000     0.586000000
H     3.468000000     2.672000000     2.023000000
O     1.641000000    -2.994000000     3.478000000
H     1.169000000    -2.168000000     3.374000000
H     0.954000000    -3.659000000     3.517000000
O    -3.875000000    -2.434000000    -1.234000000
H    -2.971000000    -2.659000000    -1.452000000
H    -4.013000000    -2.812000000    -0.365000000
O    -4.312000000     4.805000000     1.215000000
H    -4.173000000     5.702000000     0.914000000
H    -4.741000000     4.368000000     0.479000000
O     1.181000000     5.556000000     3.236000000
H     0.962000000     4.659000000     3.487000000
H     0.724000000     6.103000000     3.875000000
O     3.803000000    -6.292000000    -2.874000000
H     3.314000000    -5.523000000    -2.584000000
H     3.276000000    -7.036000000    -2.580000000
O    -1.552000000     0.330000000    -4.656000000
H    -1.640000000    -0.545000000    -4.278000000
H    -1.391000000     0.901000000    -3.904000000
O    -3.175000000    -6.118000000    -2.888000000
H    -3.599000000    -6.975000000    -2.834000000
H    -3.842000000    -5.545000000    -3.267000000
O    -0.824000000    -4.877000000    -1.918000000
H    -1.592000000    -5.201000000    -2.389000000
H    -0.773000000    -3.950000000    -2.153000000
O    -0.253000000    -1.338000000     3.866000000
H     0.160000000    -0.661000000     4.402000000
H    -1.060000000    -1.555000000     4.333000000
O    -3.941000000    -3.726000000     2.113000000
H    -4.848000000    -3.423000000     2.086000000
H    -3.420000000    -2.923000000     2.125000000
O    -0.371000000     4.102000000    -0.634000000
H    -0.707000000     4.909000000    -1.025000000
H    -0.439000000     4.247000000     0.310000000
O     3.095000000    -0.589000000     6.254000000
H     3.480000000    -0.867000000     5.423000000
H     3.741000000     0.011000000     6.628000000
O    -2.570000000    -3.256000000    -4.755000000
H    -3.401000000    -3.345000000    -4.290000000
H    -2.021000000    -2.737000000    -4.168000000
O     3.222000000     3.610000000     4.186000000
H     2.383000000     3.672000000     4.642000000
H     3.640000000     4.457000000     4.337000000
O    -5.762000000     2.477000000     2.000000000
H    -5.485000000     3.179000000     2.588000000
H    -5.352000000     2.689000000     1.162000000
O     3.902000000     5.256000000    -0.374000000
H     4.058000000     5.504000000     0.537000000
H     3.220000000     4.586000000    -0.326000000
O     3.276000000    -1.020000000    -3.301000000
H     3.911000000    -1.721000000    -3.452000000
H     2.484000000    -1.472000000    -3.012000000
O    -1.439000000     2.582000000    -2.773000000
H    -1.199000000     3.069000000    -1.984000000
H    -0.855000000     2.922000000    -3.451000000
O     1.240000000    -5.499000000    -4.042000000
H     2.116000000    -5.117000000    -3.989000000
H     0.647000000    -4.751000000    -3.959000000
O     2.701000000    -3.952000000    -1.940000000
H     2.487000000    -4.169000000    -1.032000000
H     2.074000000    -3.269000000    -2.177000000
O     5.018000000    -3.286000000    -3.589000000
H     4.354000000    -3.659000000    -3.009000000
H     5.789000000    -3.177000000    -3.032000000
O    -5.091000000    -0.406000000     1.484000000
H    -4.243000000    -0.849000000     1.455000000
H    -4.879000000     0.524000000     1.394000000
O    -1.505000000     2.858000000     7.892000000
H    -0.894000000     2.137000000     8.043000000
H    -1.709000000     2.809000000     6.958000000
O    -4.813000000    -3.689000000    -3.428000000
H    -4.728000000    -3.133000000    -2.653000000
H    -5.755000000    -3.825000000    -3.523000000
O     1.142000000     1.010000000     7.194000000
H     0.375000000     0.915000000     6.628000000
H     1.754000000     0.345000000     6.881000000
O    -0.946000000     0.829000000    -7.340000000
H    -0.990000000     0.726000000    -6.390000000
H    -0.647000000    -0.022000000    -7.660000000
O    -4.141000000     2.235000000    -3.204000000
H    -4.439000000     1.639000000    -3.891000000
H    -3.188000000     2.243000000    -3.290000000
