161
-3083.66432
C    -0.610000000    -0.996000000    -0.893000000
H    -1.231000000    -1.639000000    -1.511000000
C    -0.569000000     0.361000000    -1.155000000
H    -1.263000000     0.757000000    -1.891000000
C     0.169000000     1.214000000    -0.282000000
C    -0.007000000     2.691000000    -0.347000000
H    -0.885000000     2.994000000    -0.921000000
H    -0.017000000     3.119000000     0.657000000
H     0.829000000     3.075000000    -0.937000000
C     0.988000000     0.617000000     0.699000000
H     1.588000000     1.191000000     1.399000000
C     0.856000000    -0.722000000     0.943000000
H     1.425000000    -1.191000000     1.741000000
C     0.042000000    -1.562000000     0.220000000
C    -0.325000000    -2.920000000     0.655000000
O     0.170000000    -3.444000000     1.615000000
O    -1.163000000    -3.545000000     0.008000000
O     4.914000000     0.243000000     5.121000000
H     4.549000000     1.110000000     4.943000000
H     5.774000000     0.420000000     5.502000000
O     1.668000000     6.709000000    -1.669000000
H     1.481000000     7.134000000    -2.507000000
H     0.807000000     6.470000000    -1.326000000
O    -2.700000000    -7.352000000     0.955000000
H    -1.940000000    -6.933000000     1.357000000
H    -3.361000000    -7.365000000     1.647000000
O     4.579000000     0.253000000     0.181000000
H     4.913000000     0.728000000     0.942000000
H     4.812000000    -0.660000000     0.347000000
O     3.424000000    -4.429000000     4.477000000
H     3.564000000    -3.515000000     4.726000000
H     2.821000000    -4.768000000     5.139000000
O     5.536000000     1.731000000     2.259000000
H     6.324000000     1.928000000     2.766000000
H     4.826000000     2.148000000     2.748000000
O     5.030000000    -2.405000000     1.445000000
H     4.136000000    -2.708000000     1.291000000
H     5.107000000    -2.360000000     2.398000000
O     1.865000000     3.920000000     3.460000000
H     1.181000000     4.314000000     2.919000000
H     2.230000000     4.652000000     3.957000000
O     1.875000000    -2.059000000    -4.039000000
H     2.019000000    -2.039000000    -3.093000000
H     2.684000000    -1.709000000    -4.412000000
O     2.818000000    -1.764000000     5.198000000
H     2.361000000    -1.245000000     4.536000000
H     3.493000000    -1.177000000     5.538000000
O     3.494000000     2.660000000    -0.928000000
H     4.010000000     1.869000000    -0.776000000
H     3.025000000     2.487000000    -1.745000000
O    -1.161000000     5.184000000     2.910000000
H    -1.578000000     4.454000000     3.367000000
H    -1.808000000     5.462000000     2.262000000
O     1.633000000     5.928000000    -5.090000000
H     1.473000000     6.704000000    -4.552000000
H     0.925000000     5.326000000    -4.859000000
O    -0.754000000    -5.628000000     2.776000000
H     0.098000000    -6.065000000     2.769000000
H    -0.613000000    -4.819000000     2.284000000
O    -1.678000000     1.438000000    -4.680000000
H    -0.828000000     1.007000000    -4.772000000
H    -2.233000000     0.784000000    -4.253000000
O     2.736000000    -3.598000000     1.910000000
H     2.804000000    -3.664000000     2.863000000
H     1.801000000    -3.695000000     1.730000000
O    -3.970000000     2.868000000    -1.107000000
H    -3.722000000     2.013000000    -0.755000000
H    -4.927000000     2.854000000    -1.119000000
O    -0.139000000    -2.430000000     4.006000000
H     0.027000000    -2.926000000     3.204000000
H    -0.310000000    -3.098000000     4.669000000
O    -1.709000000    -3.865000000    -3.488000000
H    -1.209000000    -4.243000000    -2.764000000
H    -2.214000000    -3.157000000    -3.086000000
O    -2.703000000     0.258000000     1.520000000
H    -2.072000000     0.330000000     0.803000000
H    -2.530000000     1.023000000     2.068000000
O    -2.282000000     4.967000000    -3.133000000
H    -2.524000000     4.260000000    -2.535000000
H    -1.395000000     4.747000000    -3.418000000
O    -3.736000000    -4.311000000     0.291000000
H    -2.845000000    -4.043000000     0.065000000
H    -3.947000000    -4.998000000    -0.341000000
O     2.576000000    -0.742000000    -1.449000000
H     1.918000000    -0.243000000    -0.966000000
H     3.392000000    -0.583000000    -0.975000000
O     0.246000000    -3.776000000    -5.542000000
H    -0.449000000    -3.763000000    -4.884000000
H     0.891000000    -3.147000000    -5.222000000
O     1.804000000     1.484000000    -3.277000000
H     2.087000000     0.677000000    -2.848000000
H     1.849000000     1.286000000    -4.213000000
O     6.237000000     3.005000000    -0.073000000
H     5.363000000     2.936000000    -0.458000000
H     6.151000000     2.595000000     0.788000000
O    -4.491000000    -3.079000000    -3.737000000
H    -3.867000000    -3.588000000    -4.254000000
H    -5.247000000    -3.657000000    -3.636000000
O    -3.440000000    -0.291000000    -3.300000000
H    -3.632000000    -0.099000000    -2.382000000
H    -4.014000000    -1.025000000    -3.516000000
O    -2.859000000     6.344000000     1.166000000
H    -3.244000000     7.008000000     1.737000000
H    -3.556000000     6.126000000     0.548000000
O     0.008000000    -6.597000000    -4.477000000
H    -0.420000000    -6.228000000    -3.704000000
H     0.470000000    -5.858000000    -4.871000000
O    -0.756000000    -4.861000000     5.489000000
H    -1.646000000    -4.926000000     5.835000000
H    -0.735000000    -5.486000000     4.764000000
O     2.102000000    -7.141000000     0.263000000
H     1.224000000    -7.440000000     0.027000000
H     2.041000000    -6.929000000     1.195000000
O    -3.491000000    -5.507000000     3.107000000
H    -3.961000000    -5.107000000     2.375000000
H    -2.566000000    -5.363000000     2.905000000
O     3.932000000     2.709000000     4.558000000
H     3.068000000     2.858000000     4.173000000
H     3.969000000     3.309000000     5.303000000
O    -0.895000000     6.353000000    -0.761000000
H    -1.450000000     5.938000000    -1.422000000
H    -1.480000000     6.505000000    -0.019000000
O    -0.149000000    -5.461000000    -1.667000000
H    -0.585000000    -4.933000000    -0.998000000
H     0.785000000    -5.349000000    -1.489000000
O     1.683000000    -6.398000000     3.224000000
H     2.443000000    -5.817000000     3.185000000
H     2.019000000    -7.207000000     3.609000000
O    -1.216000000     2.414000000     3.157000000
H    -0.350000000     2.787000000     2.993000000
H    -1.045000000     1.634000000     3.684000000
O     3.715000000     5.517000000    -0.315000000
H     3.186000000     5.925000000    -1.000000000
H     3.754000000     4.593000000    -0.560000000
O    -1.999000000    -7.750000000    -2.317000000
H    -1.344000000    -7.117000000    -2.023000000
H    -1.510000000    -8.365000000    -2.864000000
O     1.931000000     7.290000000     1.124000000
H     2.432000000     6.792000000     0.478000000
H     1.016000000     7.088000000     0.925000000
O    -5.060000000     4.563000000    -4.147000000
H    -4.191000000     4.520000000    -3.748000000
H    -5.566000000     5.123000000    -3.558000000
O    -4.259000000    -6.653000000    -1.255000000
H    -3.888000000    -6.737000000    -2.133000000
H    -3.562000000    -6.952000000    -0.670000000
O     0.067000000     3.625000000    -4.028000000
H     0.835000000     3.313000000    -3.548000000
H    -0.483000000     2.849000000    -4.130000000
O    -4.143000000    -0.192000000    -0.805000000
H    -4.833000000    -0.852000000    -0.747000000
H    -3.730000000    -0.200000000     0.058000000
O    -2.932000000    -1.395000000     3.793000000
H    -2.058000000    -1.691000000     4.048000000
H    -2.842000000    -1.148000000     2.873000000
O     0.343000000     0.012000000    -5.617000000
H    -0.281000000    -0.462000000    -6.167000000
H     0.870000000    -0.674000000    -5.207000000
O    -0.161000000     0.442000000     4.681000000
H    -0.017000000     0.779000000     5.565000000
H     0.170000000    -0.456000000     4.710000000
