161
-3067.19872
C    -1.173000000    -0.391000000    -0.790000000
H    -2.043000000    -0.807000000    -1.290000000
C    -0.038000000    -1.158000000    -0.629000000
H    -0.015000000    -2.181000000    -0.995000000
C     1.034000000    -0.634000000     0.087000000
C     2.163000000    -1.507000000     0.471000000
H     3.109000000    -0.991000000     0.296000000
H     2.119000000    -1.898000000     1.489000000
H     2.088000000    -2.429000000    -0.109000000
C     1.022000000     0.667000000     0.467000000
H     1.865000000     1.104000000     0.996000000
C    -0.060000000     1.483000000     0.302000000
H     0.012000000     2.492000000     0.700000000
C    -1.219000000     0.901000000    -0.286000000
C    -2.568000000     1.575000000    -0.268000000
O    -2.699000000     2.775000000     0.106000000
O    -3.605000000     0.991000000    -0.545000000
O    -3.362000000     2.148000000     2.609000000
H    -2.939000000     2.426000000     1.797000000
H    -3.227000000     1.201000000     2.637000000
O     5.355000000     2.850000000     0.027000000
H     5.111000000     3.665000000     0.467000000
H     4.781000000     2.810000000    -0.737000000
O    -7.688000000     1.941000000    -3.895000000
H    -7.527000000     1.068000000    -4.252000000
H    -6.958000000     2.091000000    -3.293000000
O    -5.048000000     4.399000000     1.582000000
H    -5.640000000     3.857000000     2.103000000
H    -4.388000000     3.786000000     1.255000000
O    -2.865000000     5.337000000     3.763000000
H    -3.783000000     5.064000000     3.739000000
H    -2.648000000     5.523000000     2.850000000
O     3.139000000    -0.289000000    -4.345000000
H     2.579000000     0.254000000    -3.789000000
H     2.738000000    -1.157000000    -4.313000000
O    -5.665000000    -2.670000000     1.249000000
H    -4.922000000    -3.004000000     1.752000000
H    -5.508000000    -1.728000000     1.188000000
O     1.088000000    -5.262000000     2.313000000
H     1.755000000    -5.691000000     1.777000000
H     0.479000000    -5.964000000     2.543000000
O     6.676000000    -2.924000000     2.681000000
H     5.918000000    -2.837000000     2.102000000
H     6.648000000    -2.142000000     3.232000000
O     4.147000000     2.893000000    -2.474000000
H     4.010000000     3.727000000    -2.922000000
H     3.305000000     2.442000000    -2.545000000
O     2.102000000     5.137000000     2.117000000
H     1.996000000     4.377000000     2.689000000
H     1.976000000     5.891000000     2.693000000
O    -2.960000000    -0.494000000     2.413000000
H    -2.824000000    -0.614000000     3.352000000
H    -3.030000000    -1.384000000     2.065000000
O     3.998000000    -3.147000000    -1.919000000
H     3.294000000    -3.167000000    -2.567000000
H     4.373000000    -2.270000000    -2.001000000
O    -4.008000000    -0.872000000    -2.723000000
H    -4.262000000    -1.790000000    -2.623000000
H    -4.081000000    -0.507000000    -1.841000000
O     1.093000000    -5.569000000    -3.229000000
H     0.246000000    -5.967000000    -3.028000000
H     1.521000000    -5.474000000    -2.379000000
O     4.404000000     1.919000000     2.707000000
H     3.733000000     2.522000000     2.388000000
H     5.079000000     1.931000000     2.029000000
O    -1.328000000     3.326000000    -4.025000000
H    -1.420000000     3.661000000    -4.917000000
H    -0.480000000     3.657000000    -3.730000000
O    -2.684000000    -5.155000000    -0.242000000
H    -3.553000000    -5.364000000     0.100000000
H    -2.375000000    -5.974000000    -0.629000000
O    -1.812000000    -3.090000000     1.394000000
H    -1.593000000    -2.416000000     0.750000000
H    -1.547000000    -3.912000000     0.981000000
O    -1.722000000     0.615000000    -3.521000000
H    -1.610000000     1.541000000    -3.736000000
H    -2.621000000     0.551000000    -3.199000000
O    -5.784000000     0.068000000     0.531000000
H    -5.960000000     0.235000000     1.457000000
H    -4.995000000     0.575000000     0.342000000
O     1.004000000     5.152000000    -1.318000000
H     1.078000000     4.630000000    -0.519000000
H     1.149000000     6.053000000    -1.031000000
O    -1.811000000     6.186000000    -2.189000000
H    -2.383000000     5.442000000    -2.380000000
H    -0.955000000     5.793000000    -2.019000000
O    -3.422000000    -3.375000000    -2.184000000
H    -3.688000000    -3.794000000    -3.003000000
H    -2.951000000    -4.059000000    -1.707000000
O     1.606000000     1.439000000    -2.587000000
H     1.340000000     1.088000000    -1.737000000
H     0.878000000     2.000000000    -2.853000000
O     2.531000000    -5.317000000    -1.046000000
H     2.819000000    -4.405000000    -1.068000000
H     3.256000000    -5.787000000    -0.634000000
O    -5.836000000     6.607000000     0.598000000
H    -5.337000000     5.810000000     0.776000000
H    -5.178000000     7.302000000     0.578000000
O     1.625000000    -3.262000000     4.111000000
H     2.097000000    -2.589000000     3.622000000
H     1.419000000    -3.931000000     3.458000000
O     1.688000000    -2.644000000    -3.925000000
H     0.769000000    -2.461000000    -3.732000000
H     1.666000000    -3.166000000    -4.727000000
O     2.790000000    -2.109000000     6.858000000
H     2.885000000    -1.157000000     6.856000000
H     2.531000000    -2.326000000     5.962000000
O     5.100000000    -0.816000000    -2.076000000
H     5.809000000    -0.298000000    -1.694000000
H     4.776000000    -0.281000000    -2.801000000
O    -5.499000000     2.631000000    -1.516000000
H    -4.995000000     3.132000000    -2.157000000
H    -4.846000000     2.102000000    -1.058000000
O    -6.990000000    -2.150000000    -1.860000000
H    -6.348000000    -1.902000000    -1.195000000
H    -7.751000000    -1.599000000    -1.675000000
O    -4.698000000     1.352000000    -4.725000000
H    -5.322000000     1.025000000    -5.372000000
H    -4.508000000     0.595000000    -4.171000000
O    -3.817000000     3.510000000    -3.269000000
H    -4.259000000     2.931000000    -3.891000000
H    -2.886000000     3.320000000    -3.385000000
O     2.834000000    -0.205000000     3.790000000
H     3.277000000     0.565000000     3.433000000
H     2.902000000    -0.101000000     4.739000000
O    -7.200000000     4.742000000    -0.858000000
H    -6.722000000     5.306000000    -0.250000000
H    -6.732000000     3.907000000    -0.829000000
O    -1.290000000    -2.884000000     4.864000000
H    -1.445000000    -3.159000000     3.961000000
H    -0.450000000    -3.279000000     5.094000000
O     1.799000000     2.967000000     3.696000000
H     1.103000000     3.435000000     4.158000000
H     1.426000000     2.104000000     3.513000000
O    -0.983000000     3.399000000     4.259000000
H    -1.705000000     4.010000000     4.115000000
H    -1.239000000     2.608000000     3.784000000
O     3.730000000    -5.637000000     1.504000000
H     3.858000000    -5.821000000     2.435000000
H     4.337000000    -4.921000000     1.316000000
O     4.280000000     5.247000000     0.350000000
H     4.453000000     5.532000000    -0.547000000
H     3.351000000     5.433000000     0.486000000
O    -1.173000000    -2.025000000    -4.055000000
H    -1.541000000    -1.199000000    -3.741000000
H    -1.758000000    -2.697000000    -3.705000000
O     0.165000000    -0.140000000     3.603000000
H     1.062000000    -0.388000000     3.829000000
H     0.148000000    -0.152000000     2.646000000
O    -7.954000000     0.310000000    -0.951000000
H    -7.199000000     0.153000000    -0.383000000
H    -7.793000000     1.174000000    -1.329000000
O     4.663000000    -2.998000000     0.734000000
H     5.151000000    -3.027000000    -0.089000000
H     4.011000000    -2.310000000     0.602000000
O    -3.966000000    -1.770000000    -5.978000000
H    -3.186000000    -1.637000000    -5.439000000
H    -4.674000000    -1.897000000    -5.348000000
O    -1.894000000     5.151000000     0.665000000
H    -2.097000000     5.627000000    -0.140000000
H    -2.166000000     4.251000000     0.487000000
