161
-3067.37178
C    -0.494000000    -0.978000000    -0.960000000
H    -0.789000000    -1.691000000    -1.727000000
C    -0.333000000     0.373000000    -1.165000000
H    -0.452000000     0.848000000    -2.135000000
C     0.225000000     1.198000000    -0.177000000
C     0.394000000     2.646000000    -0.512000000
H    -0.467000000     3.198000000    -0.128000000
H     1.330000000     3.100000000    -0.180000000
H     0.463000000     2.754000000    -1.597000000
C     0.462000000     0.682000000     1.083000000
H     0.862000000     1.352000000     1.840000000
C     0.221000000    -0.704000000     1.349000000
H     0.382000000    -1.087000000     2.354000000
C    -0.168000000    -1.547000000     0.275000000
C    -0.470000000    -2.977000000     0.488000000
O    -0.003000000    -3.577000000     1.466000000
O    -1.159000000    -3.596000000    -0.282000000
O     4.360000000     0.477000000     3.887000000
H     3.497000000     0.327000000     4.273000000
H     4.972000000     0.349000000     4.612000000
O     0.636000000     6.066000000    -0.911000000
H     0.027000000     6.794000000    -0.786000000
H     0.884000000     5.805000000    -0.025000000
O     4.292000000     0.561000000    -0.835000000
H     3.984000000     0.882000000     0.012000000
H     3.947000000    -0.330000000    -0.893000000
O     1.260000000    -5.718000000     5.479000000
H     0.308000000    -5.654000000     5.556000000
H     1.592000000    -4.971000000     5.976000000
O     3.552000000     1.880000000     1.538000000
H     3.803000000     1.277000000     2.238000000
H     2.885000000     2.442000000     1.934000000
O     4.688000000    -2.030000000     2.150000000
H     3.796000000    -2.271000000     2.400000000
H     4.858000000    -1.216000000     2.624000000
O    -0.205000000    -0.931000000     6.235000000
H    -0.953000000    -0.337000000     6.295000000
H    -0.489000000    -1.721000000     6.694000000
O     1.570000000     3.051000000     3.431000000
H     0.678000000     2.846000000     3.709000000
H     1.964000000     3.485000000     4.188000000
O     2.855000000     0.105000000    -3.887000000
H     2.148000000     0.377000000    -3.303000000
H     3.391000000    -0.485000000    -3.356000000
O    -3.441000000     4.893000000     0.306000000
H    -4.309000000     5.233000000     0.524000000
H    -2.981000000     4.853000000     1.144000000
O     3.052000000    -1.214000000     6.630000000
H     3.581000000    -1.846000000     6.144000000
H     2.333000000    -0.997000000     6.037000000
O     4.333000000     3.695000000    -1.728000000
H     4.365000000     2.795000000    -1.404000000
H     5.193000000     4.057000000    -1.513000000
O    -1.685000000     4.544000000     2.493000000
H    -1.646000000     3.680000000     2.903000000
H    -0.773000000     4.761000000     2.303000000
O     4.968000000     6.128000000     0.723000000
H     4.375000000     6.504000000     0.072000000
H     4.834000000     6.662000000     1.506000000
O     0.555000000     6.135000000    -3.676000000
H     0.506000000     6.421000000    -2.764000000
H     0.089000000     5.299000000    -3.690000000
O    -0.714000000    -6.297000000     1.033000000
H     0.000000000    -6.169000000     1.657000000
H    -0.881000000    -5.424000000     0.677000000
O    -0.899000000     0.459000000    -5.373000000
H    -1.612000000     0.002000000    -5.819000000
H    -0.363000000    -0.241000000    -4.999000000
O     2.591000000    -3.619000000     1.728000000
H     2.928000000    -4.293000000     1.137000000
H     1.643000000    -3.748000000     1.723000000
O    -4.023000000     2.194000000    -2.733000000
H    -3.516000000     1.473000000    -2.358000000
H    -4.725000000     2.347000000    -2.101000000
O    -1.768000000    -3.752000000     3.369000000
H    -1.043000000    -3.770000000     2.745000000
H    -2.175000000    -4.615000000     3.289000000
O    -1.581000000    -4.077000000    -2.802000000
H    -1.315000000    -3.794000000    -1.927000000
H    -2.538000000    -4.080000000    -2.772000000
O    -2.428000000     0.975000000     1.863000000
H    -2.381000000     0.081000000     1.523000000
H    -2.744000000     1.495000000     1.124000000
O    -2.060000000     3.548000000    -3.919000000
H    -2.734000000     3.053000000    -3.454000000
H    -1.253000000     3.054000000    -3.769000000
O    -3.551000000    -4.133000000     0.771000000
H    -2.862000000    -3.705000000     0.263000000
H    -3.966000000    -3.422000000     1.259000000
O     3.757000000    -2.260000000    -0.551000000
H     4.688000000    -2.399000000    -0.378000000
H     3.330000000    -2.427000000     0.290000000
O    -0.155000000    -2.524000000    -4.362000000
H    -0.748000000    -3.118000000    -3.901000000
H     0.670000000    -2.587000000    -3.880000000
O    -3.448000000     6.560000000    -2.132000000
H    -3.204000000     5.927000000    -1.456000000
H    -4.073000000     6.091000000    -2.685000000
O     2.288000000    -2.836000000    -2.933000000
H     2.655000000    -3.588000000    -3.398000000
H     2.761000000    -2.814000000    -2.101000000
O     5.815000000     3.362000000     0.898000000
H     5.601000000     4.290000000     0.994000000
H     5.004000000     2.905000000     1.118000000
O     3.164000000    -3.194000000     4.856000000
H     3.853000000    -3.704000000     4.428000000
H     2.386000000    -3.347000000     4.320000000
O    -3.927000000    -0.597000000    -4.491000000
H    -3.985000000    -0.091000000    -3.681000000
H    -3.647000000    -1.468000000    -4.210000000
O    -4.421000000     2.218000000     0.562000000
H    -4.905000000     2.371000000     1.373000000
H    -3.970000000     3.046000000     0.393000000
O    -2.527000000    -6.570000000     3.098000000
H    -3.462000000    -6.535000000     2.898000000
H    -2.097000000    -6.349000000     2.272000000
O     2.117000000    -6.319000000    -0.620000000
H     1.410000000    -5.976000000    -1.166000000
H     1.748000000    -7.104000000    -0.216000000
O    -4.937000000    -6.214000000     1.804000000
H    -4.521000000    -5.466000000     1.376000000
H    -5.421000000    -5.833000000     2.537000000
O     1.703000000     0.399000000     4.476000000
H     1.474000000     1.198000000     4.000000000
H     0.866000000     0.061000000     4.793000000
O     0.616000000     6.200000000     2.073000000
H     1.421000000     6.519000000     2.481000000
H    -0.019000000     6.902000000     2.215000000
O    -4.430000000    -4.322000000    -1.992000000
H    -4.800000000    -5.160000000    -2.269000000
H    -4.678000000    -4.243000000    -1.071000000
O     0.783000000    -5.165000000    -2.620000000
H    -0.169000000    -5.061000000    -2.633000000
H     1.120000000    -4.274000000    -2.529000000
O     1.406000000    -6.546000000     2.828000000
H     1.538000000    -5.946000000     3.562000000
H     1.252000000    -7.397000000     3.240000000
O    -1.160000000     1.928000000     4.089000000
H    -1.659000000     1.578000000     4.827000000
H    -1.589000000     1.563000000     3.315000000
O     3.299000000     6.224000000    -1.641000000
H     2.373000000     6.262000000    -1.400000000
H     3.518000000     5.293000000    -1.602000000
O    -1.438000000    -8.500000000    -0.563000000
H    -1.120000000    -7.779000000    -0.019000000
H    -1.101000000    -8.306000000    -1.438000000
O     0.701000000     2.666000000    -4.819000000
H     1.386000000     2.733000000    -5.485000000
H     0.167000000     1.923000000    -5.099000000
O    -3.479000000     0.015000000    -1.252000000
H    -2.960000000    -0.741000000    -0.977000000
H    -3.703000000     0.461000000    -0.435000000
O    -4.272000000    -1.623000000     2.293000000
H    -3.692000000    -2.019000000     2.942000000
H    -4.517000000    -0.780000000     2.673000000
O    -0.169000000    -2.676000000    -7.074000000
H    -0.987000000    -2.197000000    -7.205000000
H     0.025000000    -2.568000000    -6.143000000
O    -3.364000000    -2.787000000     5.367000000
H    -2.955000000    -2.700000000     6.229000000
H    -2.666000000    -3.118000000     4.803000000
