161
-3024.66344
C     0.100000000     0.977000000    -1.110000000
H    -0.038000000     1.545000000    -2.026000000
C    -0.636000000    -0.194000000    -1.147000000
H    -1.317000000    -0.383000000    -1.973000000
C    -0.596000000    -1.125000000    -0.094000000
C    -1.495000000    -2.317000000    -0.103000000
H    -1.156000000    -2.867000000    -0.983000000
H    -1.384000000    -2.902000000     0.812000000
H    -2.537000000    -1.990000000    -0.111000000
C     0.146000000    -0.747000000     1.050000000
H     0.231000000    -1.308000000     1.977000000
C     0.842000000     0.478000000     1.106000000
H     1.342000000     0.806000000     2.014000000
C     0.837000000     1.321000000     0.002000000
C     1.703000000     2.537000000     0.098000000
O     2.558000000     2.596000000     0.949000000
O     1.401000000     3.565000000    -0.465000000
O     1.552000000     3.720000000     3.380000000
H     1.932000000     3.378000000     2.571000000
H     2.164000000     3.451000000     4.065000000
O    -4.943000000    -4.508000000     3.093000000
H    -4.222000000    -4.523000000     3.722000000
H    -5.404000000    -3.690000000     3.276000000
O     2.778000000    -3.772000000    -0.652000000
H     3.440000000    -3.897000000    -1.332000000
H     3.161000000    -3.126000000    -0.059000000
O    -2.375000000    -5.064000000     2.039000000
H    -3.286000000    -5.288000000     1.847000000
H    -2.271000000    -4.174000000     1.704000000
O    -5.795000000    -6.202000000     0.924000000
H    -5.890000000    -5.717000000     1.744000000
H    -5.292000000    -5.618000000     0.357000000
O    -1.213000000     3.575000000     2.554000000
H    -1.333000000     4.524000000     2.516000000
H    -0.313000000     3.459000000     2.858000000
O     3.828000000    -3.130000000     5.376000000
H     3.169000000    -3.170000000     4.682000000
H     4.663000000    -3.220000000     4.918000000
O     5.949000000     2.463000000     4.767000000
H     5.566000000     2.996000000     4.071000000
H     5.739000000     1.562000000     4.522000000
O     4.529000000     0.452000000     1.754000000
H     3.909000000     1.019000000     1.296000000
H     5.388000000     0.827000000     1.556000000
O     4.061000000     6.435000000     3.871000000
H     4.427000000     5.621000000     3.525000000
H     3.231000000     6.174000000     4.272000000
O    -1.479000000    -6.797000000    -0.966000000
H    -1.597000000    -6.714000000    -1.912000000
H    -0.649000000    -6.356000000    -0.788000000
O     4.111000000     6.338000000    -0.826000000
H     4.049000000     7.237000000    -1.149000000
H     3.381000000     6.253000000    -0.212000000
O    -0.899000000     2.851000000    -7.211000000
H    -0.156000000     3.267000000    -7.649000000
H    -0.617000000     2.754000000    -6.301000000
O    -3.389000000     1.199000000     0.569000000
H    -2.603000000     0.737000000     0.861000000
H    -4.113000000     0.696000000     0.942000000
O     1.425000000     1.247000000     6.701000000
H     0.928000000     1.739000000     7.354000000
H     2.176000000     1.806000000     6.500000000
O     5.274000000     4.042000000     2.590000000
H     6.188000000     4.207000000     2.357000000
H     4.856000000     3.801000000     1.764000000
O     1.304000000    -1.042000000    -3.837000000
H     1.100000000    -1.776000000    -4.417000000
H     0.481000000    -0.857000000    -3.385000000
O    -0.089000000     2.544000000    -4.694000000
H    -0.666000000     3.289000000    -4.525000000
H     0.510000000     2.530000000    -3.948000000
O    -2.172000000     0.876000000     3.173000000
H    -2.712000000     1.214000000     3.888000000
H    -1.855000000     1.657000000     2.721000000
O    -1.115000000     4.271000000    -0.421000000
H    -1.413000000     3.893000000     0.406000000
H    -0.162000000     4.181000000    -0.396000000
O     2.250000000     5.464000000     0.851000000
H     1.937000000     4.729000000     0.324000000
H     2.059000000     5.211000000     1.754000000
O    -5.451000000     0.222000000     1.923000000
H    -5.799000000     1.058000000     1.613000000
H    -5.903000000    -0.437000000     1.396000000
O    -5.242000000    -1.497000000    -0.477000000
H    -4.484000000    -1.423000000    -1.057000000
H    -5.887000000    -0.895000000    -0.848000000
O    -3.114000000     2.257000000    -2.267000000
H    -3.552000000     2.046000000    -1.442000000
H    -2.491000000     2.946000000    -2.037000000
O     0.482000000    -5.030000000     1.899000000
H    -0.472000000    -5.054000000     1.823000000
H     0.796000000    -5.141000000     1.002000000
O     4.511000000     3.614000000    -0.469000000
H     4.325000000     4.553000000    -0.432000000
H     3.698000000     3.198000000    -0.184000000
O     3.788000000    -0.370000000     6.660000000
H     2.947000000    -0.188000000     6.240000000
H     4.303000000    -0.811000000     5.984000000
O    -0.345000000     3.936000000     5.706000000
H    -0.960000000     4.633000000     5.478000000
H     0.221000000     3.856000000     4.938000000
O     2.199000000     3.349000000    -3.036000000
H     3.098000000     3.026000000    -3.093000000
H     1.954000000     3.218000000    -2.120000000
O     2.978000000    -3.904000000     2.856000000
H     2.218000000    -4.408000000     2.567000000
H     3.135000000    -3.280000000     2.147000000
O    -4.956000000    -1.697000000     4.028000000
H    -4.908000000    -1.001000000     3.372000000
H    -4.119000000    -1.649000000     4.489000000
O     6.027000000     1.930000000    -1.877000000
H     5.483000000     2.526000000    -1.362000000
H     6.744000000     1.691000000    -1.290000000
O     4.461000000    -0.493000000    -1.414000000
H     3.585000000    -0.115000000    -1.490000000
H     5.051000000     0.259000000    -1.448000000
O    -1.888000000     0.049000000    -4.830000000
H    -2.754000000     0.146000000    -5.226000000
H    -1.592000000     0.946000000    -4.680000000
O     1.732000000     6.951000000    -3.380000000
H     1.999000000     7.472000000    -2.622000000
H     1.035000000     6.385000000    -3.047000000
O    -1.537000000     6.310000000     1.851000000
H    -1.226000000     6.550000000     2.724000000
H    -1.930000000     7.112000000     1.508000000
O    -2.033000000    -7.498000000     3.372000000
H    -2.908000000    -7.855000000     3.217000000
H    -1.880000000    -6.909000000     2.633000000
O    -0.709000000    -0.366000000     6.490000000
H     0.174000000    -0.013000000     6.606000000
H    -1.180000000     0.318000000     6.015000000
O    -5.332000000     1.631000000    -3.701000000
H    -5.599000000     2.501000000    -3.999000000
H    -4.475000000     1.769000000    -3.297000000
O    -0.819000000    -2.777000000    -4.798000000
H    -1.249000000    -1.952000000    -4.572000000
H    -1.286000000    -3.086000000    -5.574000000
O     1.210000000    -5.918000000    -0.644000000
H     1.649000000    -6.535000000    -1.231000000
H     1.828000000    -5.193000000    -0.554000000
O     1.437000000     0.428000000    -6.063000000
H     0.749000000     1.070000000    -5.886000000
H     1.445000000    -0.133000000    -5.287000000
O     0.123000000    -4.975000000    -3.734000000
H     0.831000000    -4.605000000    -3.207000000
H    -0.269000000    -4.220000000    -4.172000000
O    -1.173000000     4.535000000    -3.378000000
H    -1.090000000     5.382000000    -3.816000000
H    -0.758000000     4.665000000    -2.525000000
O     3.490000000    -1.917000000     1.116000000
H     3.524000000    -0.990000000     1.352000000
H     4.406000000    -2.169000000     0.999000000
O    -4.637000000    -4.220000000    -0.148000000
H    -4.953000000    -3.322000000    -0.043000000
H    -4.651000000    -4.369000000    -1.093000000
O     0.043000000     6.944000000    -0.476000000
H     0.968000000     6.828000000    -0.256000000
H    -0.428000000     6.535000000     0.250000000
O    -3.385000000    -1.697000000    -2.813000000
H    -2.750000000    -1.075000000    -3.170000000
H    -4.234000000    -1.369000000    -3.111000000
