161
-3032.17024
C    -0.999000000    -0.964000000     0.379000000
H    -1.675000000    -1.799000000     0.544000000
C     0.137000000    -1.206000000    -0.372000000
H     0.438000000    -2.222000000    -0.616000000
C     1.003000000    -0.162000000    -0.611000000
C     2.296000000    -0.534000000    -1.307000000
H     2.089000000    -0.896000000    -2.317000000
H     3.007000000     0.289000000    -1.407000000
H     2.648000000    -1.342000000    -0.663000000
C     0.772000000     1.128000000    -0.212000000
H     1.448000000     1.951000000    -0.431000000
C    -0.446000000     1.390000000     0.373000000
H    -0.691000000     2.423000000     0.606000000
C    -1.286000000     0.308000000     0.773000000
C    -2.627000000     0.496000000     1.459000000
O    -2.751000000     1.555000000     2.070000000
O    -3.371000000    -0.408000000     1.729000000
O    -2.757000000     0.438000000     4.648000000
H    -3.126000000     0.717000000     3.811000000
H    -2.241000000    -0.339000000     4.435000000
O    -0.666000000     3.899000000    -3.956000000
H     0.026000000     4.060000000    -4.597000000
H    -1.251000000     4.652000000    -4.041000000
O    -5.500000000     2.070000000     2.469000000
H    -5.825000000     1.449000000     3.121000000
H    -4.547000000     2.008000000     2.533000000
O    -3.355000000     4.777000000     4.424000000
H    -3.407000000     4.494000000     3.511000000
H    -4.197000000     4.524000000     4.802000000
O    -0.024000000     5.145000000    -0.807000000
H    -0.951000000     5.119000000    -1.046000000
H     0.383000000     5.683000000    -1.486000000
O     0.408000000    -2.942000000    -3.388000000
H     1.180000000    -3.043000000    -3.945000000
H     0.552000000    -3.553000000    -2.666000000
O    -2.375000000     5.988000000    -3.114000000
H    -2.446000000     6.921000000    -2.914000000
H    -2.686000000     5.548000000    -2.323000000
O     4.537000000     6.085000000    -1.712000000
H     4.171000000     5.403000000    -1.149000000
H     5.406000000     6.256000000    -1.348000000
O     4.516000000     1.013000000     0.526000000
H     3.767000000     1.398000000     0.071000000
H     5.014000000     0.573000000    -0.162000000
O     3.560000000     2.888000000    -1.556000000
H     4.460000000     2.565000000    -1.607000000
H     3.139000000     2.547000000    -2.345000000
O     4.704000000    -1.617000000     1.352000000
H     4.396000000    -0.712000000     1.322000000
H     5.273000000    -1.651000000     2.121000000
O     3.559000000     0.123000000    -4.233000000
H     3.248000000     1.005000000    -4.032000000
H     3.063000000    -0.135000000    -5.010000000
O    -1.248000000    -5.681000000    -1.312000000
H    -1.902000000    -6.303000000    -1.630000000
H    -1.364000000    -5.677000000    -0.362000000
O    -2.760000000     4.309000000    -0.913000000
H    -3.668000000     4.048000000    -1.066000000
H    -2.741000000     4.580000000     0.005000000
O    -5.191000000    -1.795000000     6.034000000
H    -4.433000000    -2.204000000     6.451000000
H    -5.007000000    -1.848000000     5.096000000
O     4.953000000    -3.537000000    -0.366000000
H     4.784000000    -2.988000000    -1.131000000
H     4.890000000    -2.938000000     0.378000000
O    -5.206000000     0.362000000    -0.539000000
H    -5.046000000    -0.531000000    -0.844000000
H    -5.265000000     0.283000000     0.413000000
O     1.323000000    -4.853000000    -1.359000000
H     0.389000000    -5.023000000    -1.237000000
H     1.695000000    -4.918000000    -0.479000000
O     2.438000000     4.242000000     0.488000000
H     1.495000000     4.305000000     0.336000000
H     2.769000000     3.751000000    -0.264000000
O    -2.115000000    -2.974000000    -2.501000000
H    -1.296000000    -2.821000000    -2.971000000
H    -1.967000000    -3.787000000    -2.018000000
O    -0.615000000    -1.804000000     3.233000000
H    -1.274000000    -2.474000000     3.051000000
H    -0.418000000    -1.423000000     2.377000000
O    -4.767000000    -2.093000000     3.014000000
H    -4.095000000    -2.769000000     3.100000000
H    -4.355000000    -1.410000000     2.485000000
O    -2.106000000     1.748000000    -3.286000000
H    -1.480000000     2.462000000    -3.410000000
H    -2.629000000     2.016000000    -2.531000000
O    -5.245000000     3.169000000    -0.869000000
H    -5.981000000     3.290000000    -0.269000000
H    -5.184000000     2.221000000    -0.985000000
O    -0.092000000    -0.439000000    -4.634000000
H    -0.925000000    -0.005000000    -4.449000000
H    -0.186000000    -1.311000000    -4.251000000
O     3.041000000    -5.156000000     0.916000000
H     3.454000000    -5.998000000     1.102000000
H     3.694000000    -4.675000000     0.408000000
O     6.879000000    -0.456000000    -1.216000000
H     7.653000000    -0.880000000    -0.846000000
H     6.382000000    -1.171000000    -1.613000000
O     5.130000000     3.518000000     1.673000000
H     5.236000000     2.823000000     1.023000000
H     4.199000000     3.499000000     1.895000000
O    -4.513000000    -2.300000000    -1.222000000
H    -4.699000000    -3.239000000    -1.230000000
H    -3.616000000    -2.232000000    -1.550000000
O     2.623000000    -2.886000000    -4.911000000
H     2.709000000    -2.213000000    -5.586000000
H     1.978000000    -3.498000000    -5.265000000
O    -4.042000000     1.728000000     6.802000000
H    -3.789000000     1.069000000     6.155000000
H    -4.431000000     2.434000000     6.285000000
O     1.983000000     2.155000000    -3.545000000
H     1.518000000     2.829000000    -4.042000000
H     1.424000000     1.381000000    -3.611000000
O     2.164000000    -4.073000000     3.364000000
H     1.715000000    -4.915000000     3.291000000
H     2.597000000    -3.958000000     2.518000000
O    -2.697000000     6.750000000     1.286000000
H    -3.113000000     5.953000000     1.614000000
H    -3.423000000     7.357000000     1.140000000
O     4.722000000    -2.298000000    -2.799000000
H     4.245000000    -1.513000000    -3.067000000
H     4.987000000    -2.710000000    -3.622000000
O    -7.028000000     3.969000000     1.354000000
H    -7.969000000     3.800000000     1.307000000
H    -6.661000000     3.172000000     1.737000000
O     2.505000000     2.634000000     3.025000000
H     2.335000000     1.693000000     3.076000000
H     1.826000000     2.968000000     2.438000000
O     7.860000000     2.074000000    -1.772000000
H     7.544000000     2.002000000    -2.673000000
H     7.700000000     1.210000000    -1.392000000
O    -0.469000000     5.846000000     2.815000000
H    -1.137000000     5.903000000     2.132000000
H    -0.550000000     4.956000000     3.156000000
O     2.702000000     6.339000000     2.005000000
H     2.580000000     5.727000000     1.280000000
H     2.644000000     5.794000000     2.790000000
O    -0.606000000     2.489000000     3.944000000
H    -1.334000000     1.918000000     3.700000000
H     0.139000000     1.897000000     4.044000000
O     6.075000000     1.581000000    -4.344000000
H     6.629000000     1.065000000    -4.930000000
H     5.245000000     1.105000000    -4.318000000
O     3.630000000    -4.971000000    -2.966000000
H     3.703000000    -4.088000000    -3.328000000
H     2.868000000    -4.930000000    -2.388000000
O     1.830000000     0.043000000     3.729000000
H     2.587000000    -0.525000000     3.585000000
H     1.091000000    -0.560000000     3.809000000
O    -7.571000000    -0.917000000     1.527000000
H    -8.172000000    -0.892000000     2.272000000
H    -6.745000000    -1.229000000     1.896000000
O    -2.192000000    -4.149000000     2.682000000
H    -1.477000000    -4.741000000     2.451000000
H    -2.982000000    -4.684000000     2.602000000
O    -6.414000000     0.541000000     4.513000000
H    -6.032000000    -0.231000000     4.930000000
H    -7.124000000     0.804000000     5.099000000
O    -3.329000000     3.939000000     1.771000000
H    -4.237000000     3.635000000     1.775000000
H    -2.810000000     3.140000000     1.681000000
