161
-3030.83170
C    -1.268000000    -0.215000000    -0.767000000
H    -2.183000000    -0.195000000    -1.354000000
C    -0.200000000     0.575000000    -1.156000000
H    -0.281000000     1.169000000    -2.063000000
C     1.001000000     0.588000000    -0.409000000
C     2.075000000     1.408000000    -0.917000000
H     1.907000000     1.519000000    -1.991000000
H     2.171000000     2.363000000    -0.396000000
H     3.030000000     0.911000000    -0.736000000
C     1.119000000    -0.090000000     0.821000000
H     2.050000000    -0.019000000     1.378000000
C    -0.052000000    -0.692000000     1.285000000
H     0.019000000    -1.221000000     2.232000000
C    -1.212000000    -0.825000000     0.560000000
C    -2.373000000    -1.592000000     1.030000000
O    -2.335000000    -2.196000000     2.062000000
O    -3.467000000    -1.489000000     0.429000000
O    -1.836000000    -0.544000000     4.145000000
H    -1.874000000    -1.067000000     4.946000000
H    -1.874000000    -1.187000000     3.437000000
O    -0.266000000     1.559000000     4.599000000
H    -0.805000000     0.785000000     4.437000000
H    -0.761000000     2.066000000     5.243000000
O    -0.649000000     5.230000000    -4.623000000
H    -0.380000000     5.217000000    -3.705000000
H    -1.012000000     6.106000000    -4.754000000
O     3.960000000     1.888000000    -6.566000000
H     3.925000000     1.244000000    -7.273000000
H     3.305000000     1.588000000    -5.936000000
O    -3.102000000     5.256000000    -1.957000000
H    -2.515000000     4.529000000    -2.164000000
H    -3.660000000     5.341000000    -2.730000000
O     3.430000000     3.962000000     2.147000000
H     2.975000000     4.484000000     1.486000000
H     2.729000000     3.590000000     2.682000000
O     1.286000000    -4.175000000     3.018000000
H     2.119000000    -3.921000000     3.414000000
H     1.231000000    -3.651000000     2.219000000
O     2.747000000    -2.482000000     1.105000000
H     3.328000000    -1.921000000     1.618000000
H     2.183000000    -1.872000000     0.630000000
O    -0.622000000    -3.896000000    -0.773000000
H    -0.620000000    -4.781000000    -0.410000000
H    -1.534000000    -3.740000000    -1.020000000
O     4.966000000     4.968000000    -1.437000000
H     4.162000000     4.938000000    -1.955000000
H     5.517000000     4.280000000    -1.809000000
O    -3.675000000     2.309000000    -0.313000000
H    -2.999000000     2.149000000     0.346000000
H    -3.351000000     3.059000000    -0.812000000
O    -0.562000000    -1.509000000    -5.666000000
H    -0.359000000    -1.783000000    -4.772000000
H    -1.496000000    -1.692000000    -5.766000000
O    -4.531000000    -6.011000000     1.250000000
H    -4.739000000    -6.565000000     2.002000000
H    -4.829000000    -5.138000000     1.506000000
O     3.841000000    -3.490000000     4.852000000
H     3.878000000    -2.735000000     4.265000000
H     4.744000000    -3.612000000     5.143000000
O    -2.876000000    -5.785000000     4.661000000
H    -2.676000000    -5.578000000     3.749000000
H    -2.125000000    -5.454000000     5.153000000
O    -4.956000000    -0.182000000     2.148000000
H    -4.565000000    -0.788000000     1.518000000
H    -5.026000000    -0.689000000     2.957000000
O     2.221000000     5.275000000     0.255000000
H     1.331000000     5.616000000     0.167000000
H     2.424000000     4.908000000    -0.605000000
O     7.165000000    -0.874000000     2.390000000
H     7.414000000    -0.120000000     2.925000000
H     6.215000000    -0.800000000     2.300000000
O     4.264000000    -0.716000000     2.472000000
H     4.236000000    -0.303000000     3.335000000
H     4.409000000     0.008000000     1.864000000
O     1.511000000     0.169000000     6.825000000
H     0.935000000     0.898000000     7.053000000
H     1.392000000     0.056000000     5.881000000
O    -4.516000000    -0.549000000    -2.069000000
H    -5.199000000    -1.120000000    -2.419000000
H    -4.563000000    -0.672000000    -1.121000000
O     2.834000000    -2.104000000    -2.765000000
H     3.035000000    -2.607000000    -1.976000000
H     3.582000000    -1.517000000    -2.872000000
O    -6.962000000    -2.810000000    -0.031000000
H    -6.207000000    -2.875000000     0.553000000
H    -6.582000000    -2.737000000    -0.907000000
O    -0.216000000     5.811000000    -0.503000000
H    -0.396000000     4.907000000    -0.246000000
H    -1.082000000     6.203000000    -0.621000000
O    -0.695000000    -2.851000000    -3.178000000
H    -1.628000000    -3.043000000    -3.267000000
H    -0.462000000    -3.188000000    -2.312000000
O    -6.104000000    -2.539000000    -2.792000000
H    -5.717000000    -2.974000000    -3.552000000
H    -7.046000000    -2.552000000    -2.961000000
O     3.580000000    -4.219000000    -0.951000000
H     3.235000000    -3.727000000    -0.207000000
H     3.170000000    -5.081000000    -0.879000000
O     6.544000000     2.677000000    -2.041000000
H     6.699000000     2.633000000    -1.098000000
H     7.413000000     2.584000000    -2.431000000
O    -1.655000000    -4.652000000     2.613000000
H    -0.885000000    -4.582000000     3.177000000
H    -1.755000000    -3.778000000     2.235000000
O    -2.109000000     2.640000000    -6.054000000
H    -1.937000000     2.390000000    -5.146000000
H    -1.911000000     3.576000000    -6.086000000
O     1.288000000     3.295000000    -4.741000000
H     0.551000000     3.897000000    -4.644000000
H     1.752000000     3.607000000    -5.519000000
O    -5.011000000    -3.356000000     2.276000000
H    -5.112000000    -3.041000000     3.175000000
H    -4.174000000    -2.993000000     1.988000000
O     5.297000000     0.012000000    -2.790000000
H     5.514000000     0.925000000    -2.978000000
H     5.873000000    -0.226000000    -2.064000000
O     2.405000000     4.411000000    -2.392000000
H     2.444000000     4.829000000    -3.253000000
H     2.067000000     3.532000000    -2.568000000
O    -4.789000000    -2.034000000     5.137000000
H    -3.856000000    -1.962000000     5.334000000
H    -5.110000000    -2.705000000     5.740000000
O    -6.216000000     1.858000000    -3.533000000
H    -5.447000000     1.398000000    -3.196000000
H    -6.278000000     1.582000000    -4.448000000
O     1.965000000     0.266000000    -5.011000000
H     1.311000000    -0.114000000    -5.598000000
H     1.484000000     0.925000000    -4.511000000
O    -3.496000000     1.952000000     4.438000000
H    -2.932000000     2.400000000     3.807000000
H    -3.449000000     1.030000000     4.188000000
O    -1.653000000     3.122000000    -2.328000000
H    -2.136000000     2.368000000    -2.667000000
H    -1.104000000     2.763000000    -1.632000000
O     1.186000000    -3.419000000     6.114000000
H     1.713000000    -3.348000000     6.911000000
H     1.810000000    -3.681000000     5.437000000
O     4.482000000    -1.120000000    -5.132000000
H     3.572000000    -0.994000000    -5.399000000
H     4.553000000    -0.660000000    -4.296000000
O    -6.541000000     1.543000000     0.536000000
H    -5.708000000     1.296000000     0.939000000
H    -6.337000000     2.325000000     0.024000000
O     4.630000000     1.558000000     1.389000000
H     5.445000000     1.928000000     1.051000000
H     4.086000000     2.319000000     1.589000000
O    -0.523000000     3.437000000     0.756000000
H     0.089000000     2.703000000     0.704000000
H    -0.815000000     3.442000000     1.667000000
O    -3.155000000    -3.354000000    -1.559000000
H    -3.997000000    -3.595000000    -1.945000000
H    -3.304000000    -2.489000000    -1.179000000
O    -3.404000000    -1.600000000    -5.746000000
H    -3.796000000    -2.008000000    -6.518000000
H    -3.643000000    -2.179000000    -5.022000000
O    -2.839000000     0.981000000    -3.684000000
H    -3.008000000     0.363000000    -4.394000000
H    -3.191000000     0.552000000    -2.903000000
O     3.434000000     0.690000000     4.910000000
H     3.225000000     0.628000000     5.842000000
H     3.171000000     1.577000000     4.665000000
