161
-3061.37969
C    -0.226000000    -1.323000000    -0.808000000
H    -0.720000000    -1.976000000    -1.524000000
C     0.420000000    -0.154000000    -1.219000000
H     0.804000000    -0.037000000    -2.229000000
C     0.754000000     0.928000000    -0.353000000
C     1.246000000     2.223000000    -0.927000000
H     2.317000000     2.351000000    -0.755000000
H     1.139000000     2.174000000    -2.012000000
H     0.633000000     3.075000000    -0.625000000
C     0.342000000     0.860000000     0.956000000
H     0.478000000     1.744000000     1.572000000
C    -0.338000000    -0.267000000     1.430000000
H    -0.783000000    -0.288000000     2.422000000
C    -0.650000000    -1.325000000     0.550000000
C    -1.567000000    -2.382000000     1.031000000
O    -1.882000000    -2.413000000     2.225000000
O    -1.966000000    -3.194000000     0.272000000
O    -1.828000000     1.551000000    -3.291000000
H    -1.038000000     2.086000000    -3.366000000
H    -2.520000000     2.175000000    -3.071000000
O    -6.600000000    -3.966000000     0.030000000
H    -5.720000000    -4.276000000     0.245000000
H    -6.716000000    -3.182000000     0.567000000
O    -4.121000000    -3.564000000    -2.658000000
H    -3.908000000    -2.915000000    -1.988000000
H    -4.944000000    -3.255000000    -3.037000000
O     3.219000000     3.536000000    -3.360000000
H     3.286000000     2.620000000    -3.093000000
H     3.675000000     3.576000000    -4.201000000
O     1.660000000    -4.259000000    -2.745000000
H     1.536000000    -4.711000000    -1.911000000
H     2.486000000    -3.787000000    -2.641000000
O     0.433000000     6.391000000    -2.054000000
H    -0.499000000     6.175000000    -2.067000000
H     0.529000000     7.080000000    -2.712000000
O     4.383000000    -3.002000000    -2.035000000
H     5.255000000    -3.172000000    -1.679000000
H     4.135000000    -2.154000000    -1.666000000
O     0.567000000     3.762000000    -4.044000000
H     1.398000000     3.916000000    -3.594000000
H     0.421000000     4.556000000    -4.558000000
O     0.248000000    -5.701000000     2.456000000
H     0.687000000    -4.852000000     2.511000000
H    -0.283000000    -5.644000000     1.661000000
O     0.603000000    -3.200000000     3.580000000
H     0.780000000    -2.261000000     3.633000000
H    -0.319000000    -3.256000000     3.330000000
O    -3.369000000    -0.618000000    -1.850000000
H    -2.813000000     0.054000000    -2.244000000
H    -2.781000000    -1.358000000    -1.700000000
O     6.182000000     1.006000000     2.043000000
H     5.473000000     1.350000000     1.499000000
H     6.709000000     0.477000000     1.444000000
O     5.570000000     4.546000000    -1.109000000
H     6.316000000     5.137000000    -1.013000000
H     4.854000000     5.110000000    -1.402000000
O     1.939000000    -5.420000000    -0.098000000
H     1.036000000    -5.680000000    -0.276000000
H     2.283000000    -6.114000000     0.464000000
O     3.598000000     1.145000000     3.258000000
H     3.469000000     0.263000000     3.609000000
H     4.532000000     1.187000000     3.053000000
O    -4.782000000    -5.861000000     2.695000000
H    -4.839000000    -4.945000000     2.966000000
H    -4.672000000    -5.823000000     1.745000000
O    -0.612000000    -4.320000000    -4.246000000
H     0.272000000    -4.397000000    -3.887000000
H    -1.111000000    -5.006000000    -3.803000000
O     0.800000000     0.027000000    -4.881000000
H    -0.096000000    -0.182000000    -4.616000000
H     0.897000000    -0.381000000    -5.742000000
O     2.714000000     2.573000000     5.332000000
H     2.580000000     2.153000000     6.182000000
H     2.638000000     1.860000000     4.698000000
O     2.090000000     5.548000000     2.615000000
H     2.027000000     6.304000000     3.199000000
H     1.659000000     5.831000000     1.809000000
O    -2.270000000    -7.450000000     1.049000000
H    -3.018000000    -7.629000000     1.619000000
H    -1.866000000    -8.307000000     0.908000000
O     3.048000000     0.587000000    -3.301000000
H     2.132000000     0.448000000    -3.540000000
H     3.542000000     0.298000000    -4.068000000
O     3.691000000    -0.903000000    -5.652000000
H     3.848000000    -1.832000000    -5.821000000
H     2.739000000    -0.813000000    -5.677000000
O    -3.448000000     3.856000000     4.378000000
H    -4.085000000     4.477000000     4.025000000
H    -2.710000000     3.897000000     3.770000000
O    -0.895000000    -5.658000000    -0.299000000
H    -1.555000000    -6.226000000     0.098000000
H    -1.146000000    -4.774000000    -0.030000000
O     0.174000000     2.165000000    -6.550000000
H     0.867000000     2.787000000    -6.770000000
H     0.287000000     2.003000000    -5.613000000
O    -1.179000000    -5.806000000     4.869000000
H    -0.877000000    -5.900000000     3.966000000
H    -0.493000000    -6.219000000     5.395000000
O    -0.733000000     1.317000000     4.831000000
H    -0.109000000     0.649000000     5.115000000
H    -0.187000000     2.058000000     4.568000000
O    -3.219000000    -3.893000000     4.295000000
H    -2.808000000    -3.283000000     3.682000000
H    -2.517000000    -4.495000000     4.541000000
O    -6.017000000    -3.218000000     3.083000000
H    -6.039000000    -3.513000000     3.993000000
H    -5.366000000    -2.516000000     3.075000000
O     4.936000000     2.184000000    -0.176000000
H     4.140000000     2.481000000     0.265000000
H     5.138000000     2.880000000    -0.801000000
O     2.445000000    -2.980000000     0.907000000
H     2.856000000    -2.394000000     0.272000000
H     2.303000000    -3.794000000     0.425000000
O    -3.602000000     0.627000000     5.197000000
H    -2.681000000     0.886000000     5.187000000
H    -4.075000000     1.412000000     4.923000000
O     6.703000000     4.069000000     1.599000000
H     6.064000000     3.502000000     1.169000000
H     7.546000000     3.643000000     1.443000000
O     0.553000000     3.663000000     4.009000000
H     1.143000000     3.357000000     4.698000000
H     0.968000000     4.458000000     3.675000000
O    -4.281000000    -1.035000000     3.260000000
H    -3.997000000    -0.405000000     3.922000000
H    -3.468000000    -1.385000000     2.897000000
O    -4.386000000    -1.983000000     6.171000000
H    -4.231000000    -1.118000000     5.793000000
H    -3.977000000    -2.591000000     5.555000000
O     3.278000000    -1.661000000     3.880000000
H     2.853000000    -1.613000000     3.024000000
H     3.965000000    -2.318000000     3.770000000
O    -2.614000000     3.637000000    -1.279000000
H    -1.849000000     4.137000000    -0.994000000
H    -2.752000000     2.993000000    -0.584000000
O    -2.723000000     1.926000000     0.740000000
H    -2.364000000     1.061000000     0.937000000
H    -2.082000000     2.540000000     1.100000000
O     3.258000000     3.249000000     1.520000000
H     2.844000000     3.992000000     1.958000000
H     3.031000000     2.494000000     2.064000000
O    -4.027000000    -4.630000000     0.243000000
H    -3.345000000    -4.005000000     0.489000000
H    -3.798000000    -4.897000000    -0.647000000
O     1.091000000    -0.838000000     5.595000000
H     0.921000000    -1.748000000     5.838000000
H     2.038000000    -0.737000000     5.688000000
O    -1.616000000    -1.558000000    -4.154000000
H    -2.470000000    -1.841000000    -4.481000000
H    -1.081000000    -2.352000000    -4.161000000
O     3.623000000     6.453000000    -1.754000000
H     2.805000000     5.957000000    -1.766000000
H     3.385000000     7.299000000    -1.375000000
O    -1.069000000     3.787000000     1.816000000
H    -0.781000000     4.660000000     1.550000000
H    -0.499000000     3.560000000     2.551000000
O     4.329000000    -0.386000000    -1.106000000
H     3.808000000    -0.273000000    -1.901000000
H     4.439000000     0.501000000    -0.763000000
O     0.259000000     5.939000000     0.670000000
H     0.369000000     6.098000000    -0.268000000
H     0.048000000     6.799000000     1.035000000
