161
-3034.67619
C    -0.092000000    -0.779000000    -1.183000000
H    -0.095000000    -1.386000000    -2.085000000
C     0.680000000     0.384000000    -1.084000000
H     1.254000000     0.735000000    -1.938000000
C     0.544000000     1.103000000     0.111000000
C     1.438000000     2.333000000     0.290000000
H     2.430000000     1.952000000     0.037000000
H     1.298000000     3.107000000    -0.467000000
H     1.328000000     2.583000000     1.348000000
C    -0.245000000     0.606000000     1.117000000
H    -0.274000000     1.241000000     1.998000000
C    -0.950000000    -0.548000000     0.987000000
H    -1.526000000    -0.785000000     1.877000000
C    -0.825000000    -1.341000000    -0.144000000
C    -1.491000000    -2.711000000    -0.283000000
O    -1.971000000    -3.164000000     0.734000000
O    -1.508000000    -3.327000000    -1.320000000
O    -5.549000000    -6.489000000     2.529000000
H    -6.213000000    -6.986000000     2.050000000
H    -5.004000000    -6.097000000     1.847000000
O    -4.684000000    -3.251000000    -0.965000000
H    -3.799000000    -3.561000000    -0.774000000
H    -4.606000000    -2.811000000    -1.811000000
O     2.339000000    -5.026000000    -4.442000000
H     1.645000000    -4.999000000    -3.782000000
H     2.318000000    -4.159000000    -4.847000000
O    -3.652000000    -5.495000000     0.818000000
H    -3.249000000    -4.627000000     0.830000000
H    -2.928000000    -6.093000000     0.632000000
O     2.507000000     0.759000000     4.834000000
H     2.455000000     0.673000000     5.786000000
H     2.520000000     1.703000000     4.679000000
O     0.002000000    -3.574000000     2.552000000
H     0.097000000    -2.760000000     3.046000000
H    -0.525000000    -3.333000000     1.790000000
O     5.668000000     2.668000000    -1.487000000
H     5.479000000     2.786000000    -2.418000000
H     6.618000000     2.759000000    -1.422000000
O     2.698000000    -0.170000000    -4.244000000
H     2.933000000    -0.413000000    -3.349000000
H     3.536000000     0.006000000    -4.672000000
O     0.106000000    -4.171000000    -3.187000000
H    -0.658000000    -3.947000000    -2.656000000
H    -0.009000000    -3.670000000    -3.995000000
O    -6.379000000    -6.128000000    -1.007000000
H    -6.011000000    -6.876000000    -1.478000000
H    -5.623000000    -5.578000000    -0.801000000
O    -0.493000000     2.434000000     5.020000000
H    -0.651000000     2.645000000     5.940000000
H    -0.098000000     1.563000000     5.038000000
O     0.887000000     2.752000000    -3.960000000
H     0.206000000     3.419000000    -4.042000000
H     0.530000000     1.987000000    -4.411000000
O    -6.029000000    -0.420000000    -0.371000000
H    -6.116000000    -1.370000000    -0.303000000
H    -6.746000000    -0.154000000    -0.947000000
O     4.619000000     0.009000000     2.120000000
H     3.755000000    -0.066000000     2.525000000
H     5.174000000     0.378000000     2.807000000
O     3.012000000    -4.099000000    -1.273000000
H     3.525000000    -3.832000000    -0.509000000
H     2.103000000    -4.054000000    -0.978000000
O     0.612000000    -5.858000000    -1.060000000
H     0.513000000    -5.280000000    -1.817000000
H     0.802000000    -6.717000000    -1.438000000
O     3.225000000     5.876000000    -2.310000000
H     2.306000000     5.787000000    -2.058000000
H     3.254000000     5.581000000    -3.220000000
O    -1.375000000    -7.482000000    -0.169000000
H    -0.550000000    -6.998000000    -0.206000000
H    -1.173000000    -8.330000000    -0.562000000
O     1.088000000    -5.885000000     1.751000000
H     0.966000000    -5.006000000     2.110000000
H     1.014000000    -5.769000000     0.804000000
O     3.238000000    -0.928000000    -1.485000000
H     3.730000000    -1.343000000    -0.777000000
H     2.322000000    -1.122000000    -1.286000000
O    -2.857000000    -5.538000000    -2.534000000
H    -2.474000000    -5.568000000    -3.411000000
H    -2.509000000    -4.734000000    -2.148000000
O     3.010000000     4.020000000    -4.684000000
H     2.522000000     4.525000000    -5.334000000
H     2.351000000     3.465000000    -4.267000000
O     2.275000000    -2.515000000    -5.692000000
H     2.325000000    -2.109000000    -6.558000000
H     2.386000000    -1.788000000    -5.080000000
O    -4.032000000     0.023000000     3.848000000
H    -4.539000000     0.367000000     3.113000000
H    -4.099000000    -0.928000000     3.760000000
O    -0.701000000     4.546000000     3.486000000
H    -0.658000000     3.744000000     4.006000000
H    -0.193000000     5.184000000     3.986000000
O    -3.946000000    -2.781000000     3.059000000
H    -3.789000000    -3.177000000     3.916000000
H    -3.174000000    -3.013000000     2.543000000
O    -3.343000000     0.372000000    -1.219000000
H    -2.603000000    -0.234000000    -1.244000000
H    -4.062000000    -0.143000000    -0.853000000
O     4.880000000     2.282000000    -4.062000000
H     5.418000000     2.405000000    -4.844000000
H     4.176000000     2.924000000    -4.152000000
O     1.212000000    -0.989000000     3.098000000
H     0.742000000    -0.487000000     2.431000000
H     1.743000000    -0.338000000     3.557000000
O    -1.474000000    -7.151000000     2.616000000
H    -1.770000000    -7.334000000     1.724000000
H    -0.635000000    -6.705000000     2.503000000
O    -4.154000000     3.031000000     5.203000000
H    -3.563000000     2.294000000     5.052000000
H    -4.908000000     2.854000000     4.641000000
O     0.555000000     0.068000000    -5.652000000
H     1.249000000    -0.118000000    -5.019000000
H     0.922000000    -0.198000000    -6.495000000
O     2.892000000     4.817000000     2.148000000
H     3.680000000     4.710000000     1.614000000
H     2.294000000     5.319000000     1.594000000
O    -6.254000000    -2.735000000     1.397000000
H    -5.600000000    -2.842000000     2.088000000
H    -5.941000000    -3.288000000     0.682000000
O    -2.970000000     0.639000000     6.153000000
H    -2.167000000     0.119000000     6.200000000
H    -3.333000000     0.441000000     5.290000000
O    -0.344000000    -3.996000000     5.410000000
H    -1.270000000    -3.758000000     5.368000000
H    -0.201000000    -4.542000000     4.637000000
O    -3.191000000     2.229000000    -3.102000000
H    -3.115000000     1.472000000    -2.521000000
H    -3.937000000     2.721000000    -2.758000000
O    -1.069000000     3.289000000    -1.702000000
H    -1.796000000     2.825000000    -2.116000000
H    -0.394000000     2.621000000    -1.584000000
O     4.115000000     3.602000000     4.268000000
H     3.837000000     4.050000000     5.067000000
H     3.599000000     4.010000000     3.573000000
O     4.936000000     4.677000000     0.081000000
H     4.399000000     5.264000000    -0.452000000
H     5.039000000     3.892000000    -0.457000000
O    -4.419000000    -7.978000000    -1.988000000
H    -3.922000000    -7.192000000    -1.762000000
H    -4.553000000    -7.914000000    -2.934000000
O    -0.775000000    -0.717000000     5.738000000
H     0.006000000    -0.954000000     5.239000000
H    -0.659000000    -1.150000000     6.584000000
O    -4.530000000    -2.175000000    -3.499000000
H    -4.069000000    -2.217000000    -4.336000000
H    -5.424000000    -2.450000000    -3.703000000
O    -0.500000000    -2.605000000    -5.849000000
H    -0.125000000    -1.825000000    -5.440000000
H     0.149000000    -2.870000000    -6.500000000
O     1.259000000     6.794000000     0.660000000
H     0.481000000     7.348000000     0.728000000
H     1.197000000     6.400000000    -0.210000000
O    -2.477000000     4.494000000     0.564000000
H    -1.996000000     4.169000000    -0.196000000
H    -1.931000000     4.256000000     1.313000000
O     5.711000000     0.282000000    -0.294000000
H     5.528000000     0.150000000     0.636000000
H     5.419000000     1.176000000    -0.472000000
O     0.648000000     5.912000000    -1.769000000
H     0.088000000     5.136000000    -1.792000000
H     0.114000000     6.604000000    -2.160000000
