161
-3033.25971
C    -1.288000000    -0.718000000    -0.239000000
H    -2.086000000    -1.412000000    -0.490000000
C    -0.011000000    -1.249000000    -0.244000000
H     0.113000000    -2.302000000    -0.481000000
C     1.116000000    -0.499000000    -0.076000000
C     2.481000000    -1.051000000    -0.162000000
H     2.353000000    -2.117000000     0.038000000
H     2.824000000    -0.980000000    -1.196000000
H     3.260000000    -0.739000000     0.536000000
C     0.972000000     0.817000000     0.363000000
H     1.836000000     1.422000000     0.626000000
C    -0.263000000     1.419000000     0.346000000
H    -0.343000000     2.458000000     0.656000000
C    -1.426000000     0.660000000    -0.037000000
C    -2.819000000     1.283000000     0.093000000
O    -2.959000000     2.514000000     0.104000000
O    -3.758000000     0.502000000     0.161000000
O     4.894000000    -0.199000000     5.286000000
H     4.867000000    -0.565000000     4.402000000
H     4.980000000    -0.962000000     5.858000000
O     1.475000000     0.967000000    -2.662000000
H     0.643000000     1.097000000    -3.116000000
H     1.229000000     0.801000000    -1.752000000
O    -4.619000000     1.352000000     2.546000000
H    -4.037000000     0.696000000     2.929000000
H    -4.502000000     1.255000000     1.601000000
O    -0.784000000     1.820000000    -3.688000000
H    -1.535000000     2.383000000    -3.500000000
H    -0.130000000     2.410000000    -4.062000000
O     3.003000000     4.026000000     1.115000000
H     3.324000000     4.156000000     0.223000000
H     2.051000000     4.092000000     1.039000000
O    -3.229000000    -3.097000000    -4.386000000
H    -2.925000000    -2.190000000    -4.352000000
H    -2.582000000    -3.586000000    -3.877000000
O    -0.787000000     6.237000000    -0.911000000
H    -1.505000000     6.847000000    -1.079000000
H    -1.114000000     5.667000000    -0.215000000
O    -7.937000000    -0.782000000    -1.312000000
H    -8.646000000    -1.377000000    -1.065000000
H    -7.200000000    -1.049000000    -0.763000000
O     5.130000000    -1.130000000     2.576000000
H     4.378000000    -1.722000000     2.538000000
H     5.698000000    -1.419000000     1.862000000
O     4.083000000     2.421000000    -3.023000000
H     4.308000000     1.790000000    -2.339000000
H     3.130000000     2.493000000    -2.979000000
O    -6.692000000     3.409000000    -3.296000000
H    -6.366000000     4.257000000    -2.993000000
H    -6.529000000     2.815000000    -2.563000000
O    -8.610000000     2.650000000    -0.786000000
H    -7.780000000     2.173000000    -0.775000000
H    -8.969000000     2.486000000    -1.658000000
O     3.831000000    -0.443000000    -4.376000000
H     3.378000000    -0.045000000    -3.632000000
H     4.194000000     0.298000000    -4.860000000
O     1.110000000     4.944000000    -2.233000000
H     0.502000000     5.238000000    -1.555000000
H     0.548000000     4.591000000    -2.922000000
O    -4.681000000     4.190000000     1.444000000
H    -5.382000000     4.782000000     1.169000000
H    -4.527000000     3.632000000     0.681000000
O    -5.835000000    -1.234000000     0.635000000
H    -5.413000000    -2.074000000     0.456000000
H    -5.153000000    -0.583000000     0.472000000
O    -0.407000000    -6.010000000    -1.050000000
H    -0.118000000    -6.752000000    -0.519000000
H    -0.523000000    -5.296000000    -0.423000000
O    -3.604000000     7.137000000    -0.627000000
H    -4.094000000     6.359000000    -0.360000000
H    -3.972000000     7.372000000    -1.479000000
O    -0.055000000    -1.025000000     2.748000000
H    -0.185000000    -0.829000000     1.820000000
H    -0.529000000    -1.845000000     2.889000000
O    -2.343000000    -2.684000000     2.738000000
H    -3.193000000    -3.036000000     2.476000000
H    -2.550000000    -2.026000000     3.402000000
O    -2.298000000    -0.645000000    -4.260000000
H    -1.722000000     0.114000000    -4.348000000
H    -2.770000000    -0.493000000    -3.441000000
O    -4.141000000    -0.397000000    -2.405000000
H    -4.128000000    -0.048000000    -1.514000000
H    -4.797000000    -1.093000000    -2.380000000
O     0.818000000    -2.034000000    -3.672000000
H    -0.065000000    -1.745000000    -3.444000000
H     0.990000000    -1.632000000    -4.524000000
O     2.161000000    -5.157000000     1.273000000
H     2.398000000    -6.044000000     1.544000000
H     1.208000000    -5.127000000     1.357000000
O    -4.306000000     5.943000000     3.400000000
H    -4.070000000     5.305000000     2.727000000
H    -4.937000000     5.485000000     3.955000000
O    -1.127000000    -4.748000000     1.382000000
H    -1.438000000    -4.011000000     1.908000000
H    -1.542000000    -5.515000000     1.775000000
O     4.678000000    -4.480000000     0.731000000
H     3.783000000    -4.795000000     0.861000000
H     4.786000000    -4.452000000    -0.219000000
O    -5.650000000     3.129000000     4.689000000
H    -5.214000000     2.750000000     3.926000000
H    -6.538000000     3.320000000     4.387000000
O    -5.233000000    -3.703000000    -0.894000000
H    -5.622000000    -3.285000000    -1.662000000
H    -5.081000000    -4.608000000    -1.165000000
O     4.472000000    -4.286000000    -1.968000000
H     3.607000000    -4.479000000    -2.328000000
H     4.855000000    -3.663000000    -2.587000000
O    -0.500000000    -0.004000000     5.445000000
H     0.279000000     0.065000000     5.997000000
H    -0.159000000    -0.213000000     4.575000000
O     2.813000000    -2.859000000     2.994000000
H     3.091000000    -3.716000000     2.672000000
H     2.051000000    -3.044000000     3.543000000
O    -1.468000000     7.113000000     2.177000000
H    -1.295000000     6.234000000     1.841000000
H    -2.066000000     6.976000000     2.912000000
O     5.875000000    -2.117000000     0.209000000
H     5.595000000    -2.042000000    -0.703000000
H     5.405000000    -2.882000000     0.542000000
O     1.080000000     5.238000000     4.415000000
H     1.201000000     4.811000000     5.263000000
H     0.408000000     4.716000000     3.977000000
O    -3.006000000     3.260000000    -2.539000000
H    -3.806000000     3.741000000    -2.749000000
H    -3.098000000     3.035000000    -1.613000000
O    -7.429000000     2.075000000     2.565000000
H    -7.518000000     1.127000000     2.663000000
H    -6.610000000     2.190000000     2.082000000
O    -8.065000000    -0.635000000     2.274000000
H    -8.890000000    -0.913000000     1.876000000
H    -7.389000000    -1.028000000     1.721000000
O    -5.954000000     1.911000000    -1.267000000
H    -5.862000000     1.090000000    -1.751000000
H    -5.289000000     1.861000000    -0.581000000
O     2.085000000    -4.463000000    -3.253000000
H     1.734000000    -3.825000000    -3.874000000
H     1.626000000    -4.278000000    -2.433000000
O     4.400000000     3.280000000     3.457000000
H     3.859000000     3.348000000     4.244000000
H     3.855000000     2.800000000     2.833000000
O    -0.737000000     3.493000000     3.771000000
H    -1.414000000     3.546000000     4.445000000
H    -0.324000000     2.641000000     3.912000000
O     5.666000000    -1.749000000    -2.451000000
H     5.024000000    -1.374000000    -3.054000000
H     6.508000000    -1.625000000    -2.889000000
O     5.709000000     0.801000000    -0.789000000
H     6.080000000     0.014000000    -1.189000000
H     6.293000000     0.995000000    -0.056000000
O    -1.060000000    -4.554000000    -3.232000000
H    -0.942000000    -5.066000000    -2.432000000
H    -0.646000000    -5.081000000    -3.916000000
O     2.239000000     0.616000000     3.305000000
H     1.588000000     0.062000000     2.874000000
H     3.072000000     0.357000000     2.911000000
O    -4.246000000    -4.217000000     1.674000000
H    -4.524000000    -3.909000000     0.812000000
H    -4.363000000    -5.166000000     1.639000000
O    -1.439000000     4.569000000     1.089000000
H    -1.171000000     4.111000000     1.886000000
H    -2.104000000     4.002000000     0.699000000
