161
-3043.66781
C    -1.258000000    -0.741000000     0.027000000
H    -2.092000000    -1.433000000     0.114000000
C     0.032000000    -1.334000000    -0.162000000
H     0.062000000    -2.420000000    -0.176000000
C     1.112000000    -0.503000000    -0.315000000
C     2.513000000    -1.016000000    -0.490000000
H     3.329000000    -0.297000000    -0.391000000
H     2.765000000    -1.897000000     0.104000000
H     2.569000000    -1.302000000    -1.542000000
C     0.903000000     0.903000000    -0.266000000
H     1.666000000     1.657000000    -0.441000000
C    -0.357000000     1.449000000     0.110000000
H    -0.439000000     2.521000000     0.271000000
C    -1.427000000     0.634000000     0.322000000
C    -2.761000000     1.113000000     0.856000000
O    -2.973000000     2.307000000     0.872000000
O    -3.652000000     0.360000000     1.109000000
O    -1.288000000     0.224000000    -3.662000000
H    -1.382000000     0.877000000    -4.356000000
H    -2.078000000     0.323000000    -3.132000000
O    -4.605000000     0.855000000     3.572000000
H    -3.902000000     0.433000000     4.066000000
H    -4.232000000     1.006000000     2.704000000
O    -1.747000000     3.523000000    -3.903000000
H    -2.147000000     3.350000000    -3.050000000
H    -2.179000000     4.318000000    -4.214000000
O     2.193000000     3.846000000     2.899000000
H     2.129000000     4.641000000     3.428000000
H     1.363000000     3.392000000     3.048000000
O     0.686000000     6.663000000     2.334000000
H     0.144000000     6.154000000     1.731000000
H     0.369000000     6.420000000     3.204000000
O     5.420000000    -1.522000000     2.479000000
H     4.581000000    -1.780000000     2.859000000
H     5.480000000    -2.024000000     1.666000000
O     1.460000000     0.497000000    -3.240000000
H     1.308000000     0.722000000    -2.322000000
H     0.592000000     0.288000000    -3.583000000
O    -4.958000000    -1.617000000     5.110000000
H    -4.048000000    -1.654000000     4.816000000
H    -5.469000000    -1.866000000     4.339000000
O     7.558000000    -0.999000000     0.275000000
H     7.683000000    -1.244000000     1.192000000
H     6.675000000    -1.303000000     0.064000000
O    -7.602000000     2.672000000     1.600000000
H    -7.414000000     1.851000000     1.147000000
H    -8.543000000     2.803000000     1.478000000
O     3.527000000    -0.337000000    -4.920000000
H     3.226000000    -0.064000000    -4.053000000
H     2.927000000     0.093000000    -5.528000000
O     0.884000000     6.043000000    -1.125000000
H     0.996000000     5.689000000    -2.008000000
H     1.729000000     5.898000000    -0.700000000
O    -5.116000000     3.700000000     2.223000000
H    -5.973000000     3.476000000     1.860000000
H    -4.489000000     3.302000000     1.620000000
O    -5.660000000    -0.422000000    -0.568000000
H    -5.343000000    -1.275000000    -0.866000000
H    -4.985000000    -0.115000000     0.038000000
O    -1.102000000    -5.450000000    -1.293000000
H    -0.491000000    -6.186000000    -1.268000000
H    -1.171000000    -5.165000000    -0.382000000
O    -3.534000000    -4.934000000    -2.573000000
H    -2.638000000    -5.215000000    -2.391000000
H    -3.755000000    -5.359000000    -3.402000000
O    -4.483000000    -2.126000000     1.598000000
H    -4.076000000    -1.262000000     1.537000000
H    -3.976000000    -2.583000000     2.269000000
O    -3.625000000     0.922000000    -2.481000000
H    -4.434000000     0.615000000    -2.072000000
H    -3.545000000     1.833000000    -2.200000000
O    -1.933000000     3.553000000     5.268000000
H    -2.864000000     3.729000000     5.130000000
H    -1.680000000     4.142000000     5.978000000
O     0.128000000    -2.411000000    -5.088000000
H     0.322000000    -1.564000000    -4.688000000
H    -0.826000000    -2.483000000    -5.043000000
O     1.309000000    -4.580000000     2.885000000
H     1.449000000    -5.518000000     3.016000000
H     0.556000000    -4.529000000     2.297000000
O     4.606000000     1.674000000     3.953000000
H     3.819000000     2.184000000     3.764000000
H     4.956000000     1.446000000     3.091000000
O    -2.889000000     6.671000000     1.058000000
H    -3.012000000     6.439000000     0.137000000
H    -2.414000000     5.929000000     1.431000000
O    -1.121000000    -4.821000000     1.613000000
H    -1.740000000    -4.145000000     1.892000000
H    -1.387000000    -5.603000000     2.097000000
O     5.423000000    -5.587000000    -0.137000000
H     5.421000000    -6.513000000     0.106000000
H     4.826000000    -5.534000000    -0.883000000
O    -4.661000000     3.888000000     4.805000000
H    -4.870000000     3.959000000     3.874000000
H    -5.024000000     3.043000000     5.069000000
O    -5.481000000    -2.892000000    -2.120000000
H    -5.911000000    -3.505000000    -2.716000000
H    -4.626000000    -3.286000000    -1.947000000
O     3.913000000    -4.488000000    -2.730000000
H     3.055000000    -4.840000000    -2.491000000
H     3.722000000    -3.804000000    -3.371000000
O     4.067000000     5.797000000    -2.507000000
H     3.700000000     4.921000000    -2.626000000
H     5.004000000     5.689000000    -2.667000000
O     2.767000000    -2.265000000     3.174000000
H     2.355000000    -3.020000000     2.753000000
H     2.963000000    -2.563000000     4.062000000
O     5.447000000    -2.679000000    -0.342000000
H     5.358000000    -2.359000000    -1.240000000
H     5.268000000    -3.617000000    -0.404000000
O    -3.348000000     3.370000000    -1.538000000
H    -3.340000000     4.322000000    -1.645000000
H    -3.026000000     3.227000000    -0.648000000
O     4.802000000    -2.924000000    -5.245000000
H     4.363000000    -2.122000000    -4.962000000
H     5.728000000    -2.768000000    -5.060000000
O    -7.004000000     1.773000000     4.215000000
H    -7.205000000     2.182000000     3.373000000
H    -6.252000000     1.208000000     4.034000000
O    -7.898000000    -0.213000000     1.182000000
H    -8.146000000     0.351000000     0.449000000
H    -7.102000000    -0.654000000     0.886000000
O    -2.469000000     0.498000000     5.466000000
H    -2.574000000     1.420000000     5.235000000
H    -1.525000000     0.343000000     5.413000000
O     1.271000000    -4.728000000    -3.394000000
H     0.468000000    -4.748000000    -2.873000000
H     0.982000000    -4.470000000    -4.269000000
O     5.006000000     1.663000000     1.030000000
H     4.498000000     0.893000000     1.287000000
H     4.349000000     2.303000000     0.757000000
O     3.599000000     3.241000000    -3.633000000
H     3.090000000     2.435000000    -3.552000000
H     4.511000000     2.952000000    -3.606000000
O    -0.155000000     2.194000000     3.695000000
H    -0.630000000     2.764000000     4.300000000
H     0.181000000     1.486000000     4.246000000
O     5.409000000    -1.159000000    -3.140000000
H     5.099000000    -0.768000000    -3.957000000
H     6.277000000    -0.778000000    -3.008000000
O     3.259000000     3.700000000     0.391000000
H     3.895000000     4.398000000     0.550000000
H     2.643000000     3.766000000     1.121000000
O    -2.682000000    -2.840000000    -4.589000000
H    -2.898000000    -2.658000000    -3.675000000
H    -2.451000000    -3.769000000    -4.600000000
O     1.104000000     4.711000000    -3.907000000
H     1.913000000     4.202000000    -3.954000000
H     0.421000000     4.062000000    -3.735000000
O     2.536000000     0.558000000     2.345000000
H     2.535000000    -0.349000000     2.653000000
H     1.609000000     0.788000000     2.277000000
O    -6.932000000    -3.539000000     1.969000000
H    -6.061000000    -3.163000000     1.844000000
H    -7.137000000    -3.953000000     1.130000000
O    -2.534000000    -2.773000000     3.621000000
H    -3.013000000    -3.577000000     3.823000000
H    -1.759000000    -2.809000000     4.181000000
O    -1.728000000     4.445000000     1.991000000
H    -1.351000000     4.144000000     2.817000000
H    -2.194000000     3.682000000     1.648000000
