161
-3030.04854
C    -0.392000000    -1.088000000    -0.987000000
H    -0.556000000    -1.836000000    -1.758000000
C     0.502000000    -0.041000000    -1.174000000
H     1.108000000    -0.063000000    -2.076000000
C     0.627000000     0.999000000    -0.282000000
C     1.751000000     2.056000000    -0.431000000
H     2.404000000     1.807000000    -1.270000000
H     1.336000000     3.026000000    -0.712000000
H     2.315000000     2.148000000     0.499000000
C     0.030000000     0.888000000     0.914000000
H     0.141000000     1.699000000     1.629000000
C    -0.710000000    -0.242000000     1.279000000
H    -1.036000000    -0.285000000     2.315000000
C    -1.014000000    -1.176000000     0.271000000
C    -1.907000000    -2.346000000     0.516000000
O    -2.668000000    -2.251000000     1.487000000
O    -1.923000000    -3.297000000    -0.218000000
O    -0.071000000     4.743000000    -4.703000000
H     0.827000000     4.945000000    -4.439000000
H    -0.357000000     5.516000000    -5.188000000
O    -4.318000000    -0.712000000     2.927000000
H    -3.963000000    -1.303000000     2.263000000
H    -3.772000000    -0.864000000     3.699000000
O    -4.217000000    -5.447000000     3.444000000
H    -3.547000000    -4.765000000     3.399000000
H    -4.949000000    -5.034000000     3.903000000
O    -4.656000000    -3.813000000     0.499000000
H    -4.209000000    -4.420000000    -0.091000000
H    -3.960000000    -3.460000000     1.053000000
O     7.699000000     0.897000000     0.605000000
H     6.781000000     1.167000000     0.608000000
H     8.134000000     1.536000000     0.040000000
O     3.003000000     7.457000000    -0.020000000
H     2.775000000     8.211000000     0.524000000
H     2.305000000     7.413000000    -0.674000000
O     5.151000000    -1.680000000    -3.134000000
H     4.780000000    -1.552000000    -2.261000000
H     5.928000000    -1.121000000    -3.148000000
O     1.964000000     7.327000000    -2.449000000
H     2.133000000     8.181000000    -2.846000000
H     2.138000000     6.698000000    -3.149000000
O     2.723000000     4.659000000    -3.744000000
H     3.343000000     4.519000000    -3.029000000
H     3.264000000     4.664000000    -4.533000000
O    -0.241000000     7.045000000    -0.124000000
H     0.250000000     6.477000000    -0.718000000
H    -0.240000000     6.577000000     0.711000000
O     1.072000000     1.235000000     4.439000000
H     1.710000000     1.848000000     4.807000000
H     1.448000000     0.371000000     4.604000000
O    -1.906000000    -3.457000000     3.742000000
H    -0.959000000    -3.493000000     3.880000000
H    -2.006000000    -3.089000000     2.864000000
O     4.284000000    -1.851000000    -0.652000000
H     5.058000000    -2.160000000    -0.180000000
H     3.768000000    -1.391000000     0.010000000
O     2.162000000    -3.699000000    -0.728000000
H     2.815000000    -3.059000000    -0.447000000
H     1.324000000    -3.318000000    -0.462000000
O    -1.302000000    -5.930000000    -0.538000000
H    -1.354000000    -4.984000000    -0.404000000
H    -1.145000000    -6.031000000    -1.477000000
O     5.067000000     1.312000000     0.172000000
H     4.947000000     1.649000000    -0.716000000
H     4.201000000     0.990000000     0.425000000
O    -2.377000000    -4.673000000    -5.104000000
H    -2.371000000    -3.775000000    -4.773000000
H    -1.751000000    -4.666000000    -5.829000000
O    -1.479000000     1.321000000     5.962000000
H    -0.675000000     1.302000000     5.443000000
H    -2.182000000     1.334000000     5.313000000
O     6.582000000     3.130000000     2.122000000
H     5.990000000     2.413000000     1.896000000
H     6.420000000     3.290000000     3.052000000
O    -1.293000000     1.414000000    -3.132000000
H    -1.204000000     1.270000000    -2.190000000
H    -1.205000000     0.542000000    -3.517000000
O     0.530000000     4.082000000     5.514000000
H    -0.204000000     3.631000000     5.931000000
H     0.804000000     4.737000000     6.157000000
O     1.637000000    -6.223000000     0.523000000
H     2.205000000    -5.549000000     0.150000000
H     0.821000000    -6.148000000     0.028000000
O    -2.131000000    -2.143000000    -4.133000000
H    -1.322000000    -1.649000000    -4.268000000
H    -2.825000000    -1.487000000    -4.187000000
O    -1.411000000    -6.691000000     2.281000000
H    -2.253000000    -7.108000000     2.095000000
H    -1.246000000    -6.136000000     1.519000000
O     3.986000000     5.565000000     1.541000000
H     3.166000000     5.093000000     1.689000000
H     3.772000000     6.210000000     0.867000000
O     2.956000000    -0.339000000     1.371000000
H     2.991000000    -0.469000000     2.318000000
H     2.022000000    -0.297000000     1.168000000
O    -6.999000000    -0.541000000     2.318000000
H    -6.138000000    -0.730000000     2.693000000
H    -6.815000000     0.032000000     1.574000000
O     1.689000000     2.015000000    -4.774000000
H     2.003000000     2.667000000    -4.149000000
H     0.830000000     2.338000000    -5.047000000
O    -5.802000000    -3.643000000    -3.889000000
H    -4.947000000    -3.451000000    -3.504000000
H    -5.605000000    -3.923000000    -4.783000000
O    -3.574000000     1.482000000     4.040000000
H    -4.078000000     2.289000000     4.141000000
H    -4.209000000     0.843000000     3.715000000
O    -3.599000000    -7.135000000     0.418000000
H    -2.916000000    -6.757000000    -0.135000000
H    -4.090000000    -6.379000000     0.741000000
O     0.241000000     6.392000000     3.051000000
H     0.729000000     6.406000000     3.874000000
H     0.286000000     5.481000000     2.761000000
O    -5.676000000    -1.422000000    -0.357000000
H    -6.595000000    -1.656000000    -0.482000000
H    -5.241000000    -2.253000000    -0.163000000
O    -1.071000000    -5.892000000    -3.257000000
H    -0.244000000    -5.411000000    -3.235000000
H    -1.517000000    -5.567000000    -4.039000000
O     3.567000000     0.734000000    -6.212000000
H     2.921000000     0.484000000    -6.872000000
H     3.053000000     1.143000000    -5.516000000
O     0.751000000    -3.132000000     4.143000000
H     1.142000000    -2.268000000     4.010000000
H     1.476000000    -3.679000000     4.445000000
O     5.207000000     2.554000000    -2.378000000
H     5.699000000     3.367000000    -2.500000000
H     5.392000000     2.041000000    -3.164000000
O     0.035000000    -0.756000000    -4.856000000
H    -0.325000000    -0.138000000    -5.493000000
H     0.964000000    -0.533000000    -4.806000000
O     1.706000000     3.695000000     2.446000000
H     0.896000000     3.627000000     1.940000000
H     1.632000000     3.009000000     3.110000000
O    -1.672000000    -4.441000000     6.241000000
H    -1.063000000    -5.162000000     6.397000000
H    -1.550000000    -4.218000000     5.318000000
O    -2.417000000     3.408000000    -1.029000000
H    -2.740000000     2.784000000    -1.680000000
H    -2.667000000     3.027000000    -0.187000000
O     3.112000000    -1.717000000    -5.004000000
H     3.585000000    -2.101000000    -5.742000000
H     3.727000000    -1.768000000    -4.272000000
O    -2.609000000    -1.278000000     5.087000000
H    -2.524000000    -2.203000000     4.858000000
H    -1.918000000    -1.126000000     5.731000000
O    -3.630000000    -4.302000000    -2.070000000
H    -3.043000000    -4.514000000    -2.795000000
H    -3.078000000    -3.832000000    -1.445000000
O     1.274000000    -4.171000000    -3.462000000
H     1.663000000    -3.406000000    -3.884000000
H     1.703000000    -4.218000000    -2.608000000
O    -0.750000000     4.466000000     1.193000000
H    -1.652000000     4.532000000     1.506000000
H    -0.833000000     4.196000000     0.278000000
O    -3.325000000     1.778000000     1.154000000
H    -3.212000000     1.757000000     2.104000000
H    -3.625000000     0.897000000     0.929000000
O    -0.241000000     4.859000000    -1.668000000
H    -1.066000000     4.464000000    -1.386000000
H    -0.013000000     4.390000000    -2.470000000
