161
-3069.28376
C    -0.559000000     0.491000000     1.298000000
H    -1.050000000     0.921000000     2.167000000
C    -1.302000000     0.251000000     0.191000000
H    -2.372000000     0.422000000     0.107000000
C    -0.713000000    -0.185000000    -0.963000000
C    -1.503000000    -0.402000000    -2.193000000
H    -2.499000000     0.037000000    -2.106000000
H    -1.014000000     0.021000000    -3.073000000
H    -1.527000000    -1.482000000    -2.352000000
C     0.644000000    -0.554000000    -0.917000000
H     1.065000000    -1.026000000    -1.801000000
C     1.439000000    -0.402000000     0.186000000
H     2.499000000    -0.606000000     0.317000000
C     0.836000000     0.255000000     1.258000000
C     1.748000000     0.610000000     2.373000000
O     2.821000000     0.050000000     2.461000000
O     1.493000000     1.592000000     3.045000000
O     4.872000000    -0.887000000     1.079000000
H     5.560000000    -1.030000000     1.728000000
H     4.132000000    -0.549000000     1.584000000
O    -1.104000000    -3.836000000    -1.232000000
H    -1.534000000    -3.264000000    -0.597000000
H    -0.275000000    -4.074000000    -0.816000000
O    -0.421000000     0.604000000     4.720000000
H     0.111000000     0.379000000     5.483000000
H     0.139000000     1.177000000     4.197000000
O     5.467000000     0.745000000    -2.427000000
H     4.747000000     1.256000000    -2.797000000
H     5.588000000     1.102000000    -1.548000000
O    -1.313000000    -6.080000000    -2.621000000
H    -1.179000000    -5.172000000    -2.348000000
H    -1.250000000    -6.055000000    -3.576000000
O     5.214000000    -3.448000000     3.616000000
H     4.392000000    -2.970000000     3.506000000
H     5.885000000    -2.767000000     3.650000000
O    -1.868000000    -1.608000000     6.470000000
H    -2.639000000    -2.020000000     6.861000000
H    -2.110000000    -1.469000000     5.554000000
O    -2.957000000    -3.523000000    -4.049000000
H    -2.085000000    -3.447000000    -3.660000000
H    -2.793000000    -3.605000000    -4.989000000
O    -4.841000000     1.080000000    -3.361000000
H    -5.265000000     1.563000000    -4.071000000
H    -4.421000000     0.337000000    -3.794000000
O    -4.435000000    -1.002000000    -5.095000000
H    -3.877000000    -1.514000000    -5.681000000
H    -5.326000000    -1.181000000    -5.395000000
O     3.001000000    -2.165000000     6.450000000
H     3.631000000    -1.447000000     6.516000000
H     2.960000000    -2.364000000     5.515000000
O     3.009000000     3.069000000    -0.467000000
H     2.949000000     3.855000000    -1.010000000
H     2.545000000     3.298000000     0.339000000
O    -0.198000000    -0.085000000    -6.177000000
H     0.547000000    -0.379000000    -5.653000000
H    -0.246000000    -0.712000000    -6.899000000
O     5.211000000     1.807000000     0.200000000
H     4.326000000     2.058000000    -0.065000000
H     5.163000000     0.859000000     0.323000000
O    -2.265000000    -1.172000000     3.529000000
H    -1.773000000    -1.792000000     2.991000000
H    -1.611000000    -0.538000000     3.822000000
O     1.232000000    -4.331000000    -0.076000000
H     1.822000000    -3.594000000    -0.231000000
H     1.515000000    -4.692000000     0.764000000
O     4.437000000     2.230000000     3.307000000
H     3.936000000     1.457000000     3.045000000
H     3.908000000     2.970000000     3.010000000
O    -2.084000000     1.535000000    -4.595000000
H    -2.674000000     2.114000000    -5.077000000
H    -1.667000000     1.000000000    -5.270000000
O    -7.154000000     0.222000000    -1.735000000
H    -7.529000000    -0.566000000    -2.130000000
H    -6.334000000     0.359000000    -2.208000000
O     2.752000000    -3.533000000    -2.815000000
H     3.128000000    -4.382000000    -3.049000000
H     3.257000000    -3.250000000    -2.052000000
O     2.107000000    -0.611000000    -4.749000000
H     2.574000000    -0.028000000    -4.150000000
H     2.223000000    -1.484000000    -4.373000000
O     0.387000000     2.919000000    -4.081000000
H     0.162000000     3.165000000    -3.184000000
H    -0.332000000     2.353000000    -4.362000000
O    -5.215000000     3.323000000     4.318000000
H    -4.413000000     2.801000000     4.277000000
H    -5.307000000     3.548000000     5.244000000
O     4.080000000     1.448000000     5.925000000
H     3.135000000     1.337000000     6.025000000
H     4.194000000     1.720000000     5.015000000
O    -4.644000000    -0.088000000    -0.092000000
H    -5.424000000     0.274000000    -0.512000000
H    -4.887000000    -0.176000000     0.830000000
O     1.507000000     3.679000000     4.686000000
H     1.440000000     3.571000000     5.635000000
H     1.612000000     2.788000000     4.351000000
O     0.364000000    -3.075000000    -4.112000000
H     0.326000000    -2.138000000    -3.921000000
H     1.115000000    -3.391000000    -3.609000000
O    -0.084000000    -3.516000000     2.387000000
H    -0.667000000    -3.354000000     1.645000000
H     0.042000000    -4.464000000     2.391000000
O    -4.218000000    -2.422000000    -2.041000000
H    -3.887000000    -2.695000000    -2.897000000
H    -3.896000000    -1.527000000    -1.934000000
O     0.377000000    -4.105000000    -6.607000000
H    -0.208000000    -3.608000000    -7.179000000
H     0.351000000    -3.637000000    -5.773000000
O     1.473000000     0.538000000     6.853000000
H     1.623000000     0.041000000     7.658000000
H     1.062000000     1.351000000     7.147000000
O    -3.485000000     2.852000000    -2.014000000
H    -4.211000000     2.399000000    -2.443000000
H    -2.705000000     2.373000000    -2.295000000
O     0.778000000     3.433000000     1.432000000
H     0.310000000     4.185000000     1.794000000
H     1.197000000     3.024000000     2.189000000
O    -5.140000000    -3.356000000     0.183000000
H    -4.924000000    -2.919000000    -0.641000000
H    -5.191000000    -4.284000000    -0.045000000
O    -4.007000000     2.393000000     1.414000000
H    -3.881000000     1.777000000     0.692000000
H    -4.577000000     1.930000000     2.028000000
O    -2.386000000    -2.311000000     0.989000000
H    -2.284000000    -1.386000000     0.767000000
H    -3.313000000    -2.405000000     1.206000000
O     7.072000000     1.848000000     3.282000000
H     6.852000000     0.927000000     3.147000000
H     6.227000000     2.299000000     3.281000000
O    -2.199000000     2.415000000     5.234000000
H    -1.664000000     1.696000000     4.898000000
H    -1.585000000     2.965000000     5.720000000
O     0.091000000     2.693000000    -1.054000000
H    -0.080000000     1.760000000    -0.923000000
H     0.329000000     3.017000000    -0.186000000
O    -3.636000000    -5.671000000    -0.454000000
H    -2.878000000    -6.252000000    -0.518000000
H    -3.262000000    -4.790000000    -0.452000000
O    -2.424000000     5.431000000    -0.988000000
H    -2.745000000     4.564000000    -1.236000000
H    -2.572000000     5.480000000    -0.044000000
O     2.470000000    -2.591000000     3.388000000
H     1.542000000    -2.764000000     3.229000000
H     2.668000000    -1.827000000     2.846000000
O    -4.814000000     0.335000000     3.234000000
H    -3.989000000    -0.139000000     3.337000000
H    -5.487000000    -0.345000000     3.263000000
O    -0.704000000     4.961000000     3.459000000
H    -0.659000000     5.852000000     3.804000000
H     0.065000000     4.523000000     3.822000000
O    -5.331000000     4.491000000    -0.853000000
H    -4.619000000     3.940000000    -1.179000000
H    -5.620000000     4.987000000    -1.619000000
O     3.762000000    -2.918000000    -0.252000000
H     4.446000000    -2.337000000     0.080000000
H     4.076000000    -3.799000000    -0.048000000
O     2.657000000     1.655000000    -3.043000000
H     2.449000000     1.535000000    -2.116000000
H     1.844000000     1.981000000    -3.430000000
O    -2.626000000     4.817000000     1.492000000
H    -1.978000000     4.880000000     2.194000000
H    -2.851000000     3.887000000     1.457000000
