161
-3027.92712
C    -1.187000000     0.775000000    -0.484000000
H    -2.029000000     1.293000000    -0.936000000
C    -0.060000000     0.377000000    -1.240000000
H    -0.027000000     0.656000000    -2.290000000
C     1.045000000    -0.246000000    -0.645000000
C     2.254000000    -0.629000000    -1.455000000
H     3.142000000    -0.901000000    -0.880000000
H     2.045000000    -1.499000000    -2.082000000
H     2.473000000     0.220000000    -2.105000000
C     0.885000000    -0.676000000     0.674000000
H     1.622000000    -1.294000000     1.180000000
C    -0.226000000    -0.309000000     1.469000000
H    -0.184000000    -0.733000000     2.469000000
C    -1.236000000     0.459000000     0.881000000
C    -2.511000000     0.720000000     1.599000000
O    -2.546000000     0.469000000     2.784000000
O    -3.454000000     1.318000000     1.058000000
O     2.424000000    -1.127000000    -5.423000000
H     2.842000000    -0.568000000    -6.079000000
H     1.506000000    -1.167000000    -5.693000000
O    -5.565000000     0.533000000    -0.555000000
H    -5.775000000     0.960000000    -1.385000000
H    -4.721000000     0.907000000    -0.300000000
O     1.417000000     4.975000000    -4.288000000
H     0.774000000     5.671000000    -4.431000000
H     1.939000000     5.280000000    -3.546000000
O     2.979000000     3.434000000    -1.191000000
H     2.947000000     4.380000000    -1.337000000
H     2.061000000     3.168000000    -1.144000000
O    -0.317000000    -1.471000000    -6.010000000
H    -0.775000000    -1.331000000    -6.839000000
H    -0.518000000    -2.377000000    -5.776000000
O    -2.703000000    -3.935000000     1.845000000
H    -2.468000000    -3.184000000     2.389000000
H    -2.311000000    -3.745000000     0.992000000
O     1.077000000    -5.002000000    -0.725000000
H     1.866000000    -5.302000000    -1.177000000
H     1.270000000    -5.131000000     0.204000000
O     3.583000000     0.021000000     3.603000000
H     2.948000000    -0.645000000     3.866000000
H     3.860000000     0.426000000     4.425000000
O    -5.668000000    -1.319000000     4.381000000
H    -5.830000000    -2.085000000     3.831000000
H    -5.370000000    -0.645000000     3.771000000
O     6.430000000     0.302000000    -3.587000000
H     6.293000000     0.074000000    -2.668000000
H     5.698000000     0.881000000    -3.802000000
O     0.315000000     5.512000000    -0.065000000
H    -0.027000000     4.952000000     0.631000000
H    -0.313000000     6.232000000    -0.125000000
O    -2.104000000    -1.814000000     4.228000000
H    -2.100000000    -1.043000000     3.661000000
H    -2.337000000    -1.475000000     5.092000000
O     5.623000000    -4.503000000     2.272000000
H     5.434000000    -3.604000000     2.542000000
H     6.413000000    -4.738000000     2.759000000
O     4.282000000    -4.447000000    -1.845000000
H     3.992000000    -5.359000000    -1.818000000
H     3.819000000    -4.070000000    -2.593000000
O    -7.444000000     4.049000000     2.057000000
H    -7.440000000     4.394000000     1.164000000
H    -6.678000000     3.477000000     2.096000000
O     4.410000000     2.728000000    -3.632000000
H     3.465000000     2.594000000    -3.708000000
H     4.518000000     3.217000000    -2.816000000
O    -7.354000000     4.007000000    -0.866000000
H    -7.273000000     3.099000000    -1.158000000
H    -8.016000000     4.386000000    -1.445000000
O     5.434000000    -2.488000000    -0.371000000
H     5.023000000    -3.267000000    -0.747000000
H     5.157000000    -2.490000000     0.545000000
O    -7.985000000     2.248000000     4.172000000
H    -7.578000000     2.620000000     3.389000000
H    -7.248000000     1.994000000     4.727000000
O    -6.408000000    -1.192000000     1.493000000
H    -5.918000000    -0.837000000     0.751000000
H    -7.228000000    -0.698000000     1.496000000
O     2.505000000    -2.450000000     4.113000000
H     1.899000000    -3.190000000     4.105000000
H     3.224000000    -2.734000000     4.678000000
O    -5.408000000     5.821000000    -0.269000000
H    -4.607000000     5.351000000    -0.504000000
H    -6.113000000     5.200000000    -0.454000000
O    -0.563000000     1.746000000     4.140000000
H    -0.390000000     1.063000000     4.788000000
H    -1.261000000     1.386000000     3.593000000
O     8.944000000    -0.070000000    -1.222000000
H     9.153000000    -1.004000000    -1.260000000
H     7.990000000    -0.040000000    -1.161000000
O    -6.093000000     1.635000000     5.960000000
H    -6.507000000     0.806000000     6.202000000
H    -5.253000000     1.381000000     5.579000000
O    -3.713000000     1.605000000     4.770000000
H    -3.127000000     1.484000000     5.517000000
H    -3.305000000     1.107000000     4.062000000
O    -5.784000000    -1.245000000    -2.760000000
H    -5.728000000    -0.650000000    -2.013000000
H    -5.607000000    -0.691000000    -3.521000000
O     6.415000000    -0.122000000    -0.852000000
H     6.103000000    -0.973000000    -0.545000000
H     5.762000000     0.501000000    -0.534000000
O    -0.334000000     1.838000000    -5.850000000
H    -0.387000000     0.938000000    -6.173000000
H    -1.188000000     2.218000000    -6.057000000
O    -1.285000000     3.729000000    -2.709000000
H    -0.801000000     4.292000000    -3.314000000
H    -0.663000000     3.041000000    -2.473000000
O    -2.216000000     4.236000000     4.313000000
H    -2.128000000     4.619000000     5.186000000
H    -2.410000000     3.313000000     4.475000000
O     0.595000000     4.144000000     3.693000000
H     0.186000000     3.279000000     3.712000000
H    -0.137000000     4.753000000     3.598000000
O    -3.132000000     4.070000000    -0.540000000
H    -2.622000000     3.975000000    -1.345000000
H    -3.318000000     3.171000000    -0.268000000
O     2.585000000    -3.565000000    -4.125000000
H     1.730000000    -3.781000000    -3.753000000
H     2.442000000    -2.745000000    -4.596000000
O    -1.810000000     5.219000000     1.690000000
H    -2.413000000     4.804000000     1.073000000
H    -2.043000000     4.846000000     2.540000000
O    -1.831000000     0.623000000     6.585000000
H    -1.314000000     1.039000000     7.274000000
H    -2.144000000    -0.192000000     6.978000000
O    -1.030000000    -3.388000000    -0.430000000
H    -0.199000000    -3.843000000    -0.564000000
H    -0.780000000    -2.479000000    -0.262000000
O    -5.208000000     2.769000000     2.744000000
H    -4.880000000     2.614000000     3.629000000
H    -4.637000000     2.246000000     2.182000000
O    -1.630000000    -4.072000000     6.004000000
H    -1.415000000    -4.807000000     5.431000000
H    -1.305000000    -3.302000000     5.537000000
O    -3.819000000     2.596000000    -3.445000000
H    -2.948000000     2.964000000    -3.598000000
H    -4.331000000     3.328000000    -3.102000000
O     5.511000000    -1.920000000     2.988000000
H     4.988000000    -1.135000000     3.154000000
H     6.348000000    -1.587000000     2.665000000
O     3.006000000     0.661000000    -7.470000000
H     3.095000000     1.306000000    -6.768000000
H     2.279000000     0.985000000    -8.002000000
O     4.454000000     1.283000000     0.146000000
H     3.981000000     2.099000000    -0.014000000
H     4.078000000     0.942000000     0.957000000
O    -0.182000000    -4.159000000    -4.272000000
H    -0.653000000    -4.353000000    -3.461000000
H    -0.219000000    -4.975000000    -4.771000000
O    -5.360000000     0.686000000    -4.753000000
H    -5.038000000     0.474000000    -5.630000000
H    -4.812000000     1.417000000    -4.467000000
O     4.828000000    -2.991000000    -5.472000000
H     4.066000000    -3.223000000    -4.942000000
H     4.851000000    -2.034000000    -5.453000000
O     2.260000000     3.116000000    -6.106000000
H     1.433000000     2.637000000    -6.166000000
H     2.050000000     3.893000000    -5.589000000
O     2.898000000     2.839000000     2.638000000
H     2.435000000     3.445000000     3.216000000
H     2.205000000     2.402000000     2.144000000
