161
-3044.41414
C    -1.147000000     0.658000000     0.638000000
H    -2.114000000     0.994000000     1.003000000
C    -1.136000000    -0.384000000    -0.223000000
H    -2.089000000    -0.869000000    -0.422000000
C     0.012000000    -0.883000000    -0.825000000
C    -0.142000000    -2.121000000    -1.685000000
H    -0.921000000    -2.767000000    -1.275000000
H    -0.446000000    -1.794000000    -2.682000000
H     0.805000000    -2.664000000    -1.707000000
C     1.243000000    -0.298000000    -0.521000000
H     2.119000000    -0.703000000    -1.021000000
C     1.284000000     0.725000000     0.402000000
H     2.236000000     1.179000000     0.666000000
C     0.066000000     1.180000000     1.010000000
C     0.086000000     2.208000000     2.021000000
O     1.091000000     2.833000000     2.202000000
O    -0.949000000     2.705000000     2.419000000
O     6.598000000     0.981000000    -3.438000000
H     7.150000000     1.082000000    -2.663000000
H     5.704000000     0.975000000    -3.095000000
O    -0.836000000     1.534000000    -5.528000000
H    -0.929000000     2.086000000    -6.304000000
H     0.055000000     1.190000000    -5.583000000
O    -3.222000000     2.104000000     3.617000000
H    -3.226000000     2.589000000     4.442000000
H    -2.478000000     2.461000000     3.132000000
O     2.153000000    -4.503000000    -5.406000000
H     2.249000000    -5.352000000    -4.974000000
H     2.181000000    -4.705000000    -6.341000000
O     1.222000000     1.809000000    -3.044000000
H     1.628000000     2.670000000    -2.941000000
H     0.292000000     1.961000000    -2.873000000
O     2.117000000     0.749000000    -5.350000000
H     2.202000000    -0.167000000    -5.086000000
H     1.863000000     1.206000000    -4.549000000
O    -4.013000000    -0.577000000     2.511000000
H    -3.683000000     0.192000000     2.976000000
H    -4.156000000    -1.229000000     3.198000000
O    -5.329000000    -4.289000000     1.951000000
H    -6.253000000    -4.218000000     2.193000000
H    -5.157000000    -3.502000000     1.433000000
O    -4.804000000    -1.961000000     0.367000000
H    -4.577000000    -1.314000000     1.035000000
H    -5.542000000    -1.571000000    -0.103000000
O     7.187000000     2.771000000     1.935000000
H     6.999000000     2.274000000     2.731000000
H     6.476000000     2.543000000     1.336000000
O     2.971000000     3.997000000     0.463000000
H     2.674000000     4.787000000     0.011000000
H     2.207000000     3.704000000     0.960000000
O     1.398000000    -2.299000000     1.803000000
H     2.303000000    -2.040000000     1.976000000
H     1.138000000    -1.771000000     1.049000000
O    -2.850000000    -6.302000000    -2.436000000
H    -3.315000000    -5.514000000    -2.156000000
H    -1.968000000    -5.997000000    -2.649000000
O    -0.472000000    -0.388000000     4.202000000
H    -1.039000000     0.380000000     4.269000000
H    -0.827000000    -0.884000000     3.464000000
O    -2.125000000    -5.923000000    -5.445000000
H    -1.484000000    -6.353000000    -6.011000000
H    -1.639000000    -5.715000000    -4.647000000
O    -6.110000000    -3.287000000    -2.440000000
H    -6.777000000    -3.372000000    -1.758000000
H    -5.315000000    -3.645000000    -2.043000000
O     3.785000000     0.993000000    -2.030000000
H     3.012000000     1.368000000    -2.452000000
H     3.693000000     0.048000000    -2.157000000
O    -1.174000000     3.095000000    -2.159000000
H    -0.738000000     3.382000000    -1.357000000
H    -2.106000000     3.233000000    -1.988000000
O     4.913000000    -0.284000000     1.475000000
H     4.905000000     0.606000000     1.122000000
H     5.681000000    -0.693000000     1.074000000
O    -0.197000000    -5.236000000    -3.570000000
H     0.639000000    -5.678000000    -3.421000000
H     0.028000000    -4.307000000    -3.615000000
O    -1.475000000    -2.096000000    -5.422000000
H    -2.348000000    -2.485000000    -5.476000000
H    -1.140000000    -2.134000000    -6.318000000
O     2.056000000     4.317000000    -2.881000000
H     2.382000000     5.043000000    -2.349000000
H     1.201000000     4.613000000    -3.193000000
O    -2.665000000     6.647000000     3.979000000
H    -2.992000000     7.484000000     3.649000000
H    -1.995000000     6.386000000     3.347000000
O    -0.584000000     3.217000000     5.131000000
H    -1.409000000     3.659000000     5.331000000
H    -0.602000000     3.096000000     4.181000000
O     2.387000000     0.648000000     4.105000000
H     1.577000000     0.145000000     4.192000000
H     2.112000000     1.484000000     3.729000000
O     1.448000000    -1.931000000    -4.768000000
H     0.492000000    -1.900000000    -4.742000000
H     1.652000000    -2.826000000    -5.040000000
O    -2.893000000     4.402000000     5.577000000
H    -3.051000000     4.884000000     6.389000000
H    -2.778000000     5.082000000     4.914000000
O     4.280000000    -2.655000000     2.524000000
H     4.566000000    -1.814000000     2.168000000
H     4.909000000    -2.847000000     3.220000000
O     4.284000000    -4.370000000    -2.784000000
H     3.689000000    -5.120000000    -2.779000000
H     5.002000000    -4.637000000    -3.358000000
O     0.626000000     8.168000000     1.986000000
H     1.100000000     8.696000000     2.628000000
H     1.053000000     7.312000000     2.020000000
O    -1.060000000     5.334000000     1.797000000
H    -0.114000000     5.479000000     1.806000000
H    -1.159000000     4.385000000     1.869000000
O    -4.538000000     0.717000000    -2.259000000
H    -3.657000000     0.397000000    -2.455000000
H    -5.042000000    -0.073000000    -2.063000000
O    -0.038000000     1.971000000     7.495000000
H    -0.772000000     1.490000000     7.875000000
H    -0.405000000     2.395000000     6.719000000
O    -1.176000000    -2.485000000     2.370000000
H    -0.287000000    -2.799000000     2.208000000
H    -1.628000000    -2.604000000     1.534000000
O     6.437000000     1.175000000     3.859000000
H     6.342000000     0.837000000     4.750000000
H     5.781000000     0.698000000     3.351000000
O     5.460000000     5.374000000     0.851000000
H     6.052000000     4.658000000     0.622000000
H     4.589000000     4.976000000     0.844000000
O     0.562000000    -6.101000000     0.697000000
H     1.314000000    -5.537000000     0.516000000
H     0.826000000    -6.614000000     1.461000000
O     2.293000000    -6.141000000    -2.438000000
H     2.258000000    -5.847000000    -1.528000000
H     2.495000000    -7.074000000    -2.381000000
O     3.205000000     4.406000000     5.384000000
H     3.548000000     4.923000000     4.655000000
H     3.228000000     3.503000000     5.068000000
O    -3.593000000    -4.057000000    -1.036000000
H    -3.930000000    -3.251000000    -0.643000000
H    -2.912000000    -4.352000000    -0.431000000
O     3.666000000    -1.570000000    -3.274000000
H     2.825000000    -1.786000000    -3.677000000
H     3.978000000    -2.400000000    -2.913000000
O    -1.901000000    -4.769000000     0.840000000
H    -2.517000000    -5.343000000     1.296000000
H    -1.068000000    -5.240000000     0.870000000
O     5.107000000     2.193000000     0.444000000
H     4.326000000     2.718000000     0.618000000
H     5.011000000     1.915000000    -0.467000000
O    -5.221000000     2.646000000    -0.431000000
H    -5.113000000     2.134000000    -1.232000000
H    -5.132000000     2.006000000     0.276000000
O    -2.348000000    -0.064000000    -3.373000000
H    -2.051000000     0.709000000    -3.853000000
H    -1.877000000    -0.793000000    -3.776000000
O     3.010000000    -4.859000000    -0.131000000
H     3.727000000    -5.193000000     0.408000000
H     3.417000000    -4.193000000    -0.685000000
O    -0.606000000     5.999000000    -0.949000000
H    -0.771000000     5.956000000    -0.007000000
H    -1.419000000     5.694000000    -1.349000000
O     1.471000000     5.712000000     2.419000000
H     1.660000000     5.944000000     3.328000000
H     1.365000000     4.761000000     2.432000000
