161
-3052.72179
C    -1.439000000     0.489000000    -0.079000000
H    -2.486000000     0.765000000    -0.175000000
C    -0.779000000    -0.319000000    -1.051000000
H    -1.270000000    -0.629000000    -1.969000000
C     0.567000000    -0.621000000    -0.889000000
C     1.338000000    -1.435000000    -1.882000000
H     1.890000000    -2.257000000    -1.421000000
H     0.767000000    -1.850000000    -2.716000000
H     2.095000000    -0.788000000    -2.330000000
C     1.269000000    -0.252000000     0.294000000
H     2.295000000    -0.591000000     0.413000000
C     0.592000000     0.487000000     1.243000000
H     1.116000000     0.744000000     2.160000000
C    -0.737000000     0.858000000     1.043000000
C    -1.507000000     1.605000000     2.175000000
O    -0.981000000     2.073000000     3.161000000
O    -2.727000000     1.717000000     2.024000000
O    -2.153000000     1.155000000    -3.491000000
H    -2.906000000     1.499000000    -3.973000000
H    -1.425000000     1.214000000    -4.110000000
O    -4.398000000    -0.073000000     2.984000000
H    -3.822000000    -0.701000000     3.421000000
H    -3.831000000     0.671000000     2.782000000
O     5.136000000    -6.384000000    -1.546000000
H     4.338000000    -6.156000000    -1.070000000
H     4.826000000    -6.830000000    -2.334000000
O     3.205000000     2.303000000    -3.480000000
H     3.051000000     2.240000000    -4.423000000
H     2.411000000     1.945000000    -3.083000000
O    -0.251000000     0.404000000    -5.346000000
H    -0.881000000     0.274000000    -6.054000000
H     0.326000000    -0.358000000    -5.396000000
O    -1.933000000    -1.917000000     1.408000000
H    -1.555000000    -1.695000000     2.259000000
H    -1.473000000    -1.353000000     0.787000000
O     1.757000000    -4.406000000     3.785000000
H     1.666000000    -3.682000000     4.404000000
H     2.065000000    -3.994000000     2.978000000
O     1.697000000    -1.853000000    -6.368000000
H     2.474000000    -1.480000000    -5.952000000
H     2.039000000    -2.364000000    -7.101000000
O     0.041000000     4.225000000     0.264000000
H     0.191000000     3.633000000    -0.473000000
H    -0.821000000     4.606000000     0.093000000
O    -3.533000000    -1.511000000    -3.465000000
H    -2.685000000    -1.073000000    -3.532000000
H    -3.504000000    -2.194000000    -4.135000000
O    -0.075000000    -1.371000000     3.362000000
H     0.713000000    -1.753000000     3.747000000
H     0.037000000    -0.427000000     3.474000000
O    -0.695000000    -5.128000000    -3.660000000
H    -1.290000000    -5.877000000    -3.630000000
H    -0.998000000    -4.552000000    -2.959000000
O     1.940000000    -1.828000000     5.304000000
H     2.459000000    -1.025000000     5.351000000
H     1.530000000    -1.898000000     6.166000000
O    -1.427000000     0.768000000     6.412000000
H    -0.685000000     0.788000000     5.807000000
H    -1.436000000     1.639000000     6.808000000
O     3.201000000     3.115000000     4.133000000
H     4.118000000     3.374000000     4.227000000
H     2.935000000     3.481000000     3.289000000
O    -4.337000000    -2.717000000     0.175000000
H    -4.732000000    -2.929000000     1.021000000
H    -3.704000000    -2.026000000     0.373000000
O     5.407000000     1.364000000    -2.104000000
H     4.623000000     1.705000000    -2.534000000
H     5.106000000     0.581000000    -1.642000000
O    -0.015000000     2.423000000    -1.903000000
H    -0.641000000     2.068000000    -2.535000000
H     0.015000000     1.770000000    -1.203000000
O     5.774000000    -2.443000000     1.934000000
H     5.943000000    -3.147000000     2.560000000
H     6.367000000    -2.624000000     1.205000000
O     3.938000000     0.029000000    -5.117000000
H     3.378000000     0.466000000    -5.758000000
H     4.549000000     0.708000000    -4.831000000
O     3.176000000    -4.423000000    -4.463000000
H     3.069000000    -5.359000000    -4.292000000
H     2.568000000    -4.239000000    -5.179000000
O    -2.611000000     3.521000000     4.836000000
H    -2.316000000     3.331000000     5.727000000
H    -2.249000000     2.810000000     4.308000000
O     0.920000000     1.311000000     4.718000000
H     1.448000000     2.104000000     4.622000000
H     0.141000000     1.476000000     4.187000000
O     3.030000000    -3.388000000     1.657000000
H     3.229000000    -4.016000000     0.962000000
H     3.872000000    -2.983000000     1.862000000
O     6.076000000    -1.995000000    -3.584000000
H     5.328000000    -1.668000000    -4.084000000
H     5.738000000    -2.115000000    -2.697000000
O     3.380000000     0.592000000     5.642000000
H     3.664000000     1.344000000     6.162000000
H     2.606000000     0.904000000     5.173000000
O     4.830000000    -0.757000000    -0.609000000
H     5.157000000    -0.489000000     0.250000000
H     4.543000000    -1.661000000    -0.484000000
O    -1.323000000     7.051000000     1.659000000
H    -1.195000000     7.721000000     2.331000000
H    -0.952000000     6.255000000     2.041000000
O    -4.925000000     4.645000000     3.576000000
H    -4.167000000     4.283000000     4.033000000
H    -4.681000000     4.622000000     2.650000000
O    -0.777000000    -2.430000000    -6.761000000
H     0.155000000    -2.287000000    -6.596000000
H    -0.915000000    -2.107000000    -7.651000000
O    -4.256000000     3.556000000     1.183000000
H    -5.108000000     3.143000000     1.043000000
H    -3.748000000     2.901000000     1.661000000
O    -3.161000000    -1.384000000     5.075000000
H    -2.863000000    -2.166000000     5.539000000
H    -2.501000000    -0.720000000     5.274000000
O     5.598000000     0.338000000     3.946000000
H     4.746000000     0.522000000     4.342000000
H     5.429000000    -0.383000000     3.340000000
O     2.626000000     3.925000000     1.428000000
H     1.676000000     3.824000000     1.479000000
H     2.780000000     4.303000000     0.562000000
O    -6.661000000     0.990000000     2.310000000
H    -5.927000000     0.435000000     2.573000000
H    -6.662000000     1.705000000     2.946000000
O     1.374000000    -5.651000000    -5.970000000
H     0.797000000    -5.468000000    -5.229000000
H     1.919000000    -6.381000000    -5.674000000
O    -2.894000000     4.876000000    -3.116000000
H    -2.012000000     5.115000000    -3.401000000
H    -2.857000000     4.920000000    -2.160000000
O     2.533000000    -5.426000000    -0.565000000
H     1.782000000    -4.873000000    -0.350000000
H     2.177000000    -6.313000000    -0.598000000
O    -1.769000000     3.381000000     7.337000000
H    -1.157000000     4.098000000     7.499000000
H    -2.500000000     3.552000000     7.931000000
O    -2.389000000    -3.827000000    -1.727000000
H    -3.198000000    -3.538000000    -1.305000000
H    -1.712000000    -3.695000000    -1.063000000
O     4.835000000    -3.441000000    -1.644000000
H     4.139000000    -3.305000000    -2.287000000
H     4.872000000    -4.390000000    -1.528000000
O     3.492000000     1.357000000     1.868000000
H     2.664000000     1.609000000     1.457000000
H     4.016000000     2.158000000     1.860000000
O    -5.020000000     0.410000000    -2.036000000
H    -4.266000000     0.952000000    -1.802000000
H    -4.641000000    -0.344000000    -2.488000000
O     1.493000000     6.316000000     4.380000000
H     0.903000000     7.057000000     4.516000000
H     0.972000000     5.682000000     3.887000000
O     0.183000000    -4.589000000     0.462000000
H    -0.502000000    -5.042000000     0.953000000
H     0.349000000    -3.790000000     0.963000000
O     1.930000000     1.531000000    -6.115000000
H     1.063000000     1.241000000    -5.832000000
H     1.754000000     2.215000000    -6.761000000
O    -2.360000000     4.997000000    -0.084000000
H    -2.503000000     5.782000000     0.444000000
H    -3.125000000     4.449000000     0.090000000
O    -0.295000000     4.878000000     2.991000000
H    -0.710000000     4.140000000     3.438000000
H    -0.203000000     4.587000000     2.084000000
