161
-3061.45995
C    -0.873000000    -0.906000000     0.870000000
H    -1.540000000    -1.483000000     1.505000000
C    -1.184000000     0.400000000     0.494000000
H    -2.159000000     0.839000000     0.687000000
C    -0.341000000     1.175000000    -0.327000000
C    -0.617000000     2.516000000    -0.692000000
H    -1.519000000     2.951000000    -0.256000000
H     0.192000000     3.246000000    -0.618000000
H    -0.900000000     2.548000000    -1.746000000
C     0.866000000     0.582000000    -0.810000000
H     1.524000000     1.083000000    -1.516000000
C     1.260000000    -0.721000000    -0.333000000
H     2.101000000    -1.209000000    -0.819000000
C     0.403000000    -1.453000000     0.499000000
C     0.809000000    -2.818000000     0.901000000
O     1.830000000    -3.243000000     0.507000000
O     0.151000000    -3.508000000     1.661000000
O     1.992000000     3.428000000    -3.777000000
H     2.063000000     3.185000000    -4.700000000
H     1.609000000     4.305000000    -3.789000000
O    -4.353000000    -2.134000000    -0.181000000
H    -4.411000000    -1.475000000    -0.874000000
H    -4.666000000    -1.684000000     0.604000000
O     0.691000000     2.358000000     3.137000000
H     1.051000000     2.488000000     4.015000000
H     1.225000000     1.659000000     2.760000000
O     2.725000000     0.252000000     2.409000000
H     2.936000000     0.038000000     1.500000000
H     2.612000000    -0.598000000     2.835000000
O    -1.656000000    -5.116000000    -1.378000000
H    -2.005000000    -6.007000000    -1.363000000
H    -1.753000000    -4.805000000    -0.478000000
O     1.062000000    -6.028000000     0.476000000
H     1.540000000    -5.702000000    -0.287000000
H     0.853000000    -5.242000000     0.981000000
O     5.228000000    -5.958000000    -2.572000000
H     5.813000000    -6.248000000    -1.872000000
H     4.663000000    -5.306000000    -2.158000000
O     1.885000000    -3.067000000    -4.018000000
H     2.505000000    -2.658000000    -3.413000000
H     1.732000000    -2.402000000    -4.689000000
O    -1.772000000     7.226000000    -2.418000000
H    -2.475000000     7.867000000    -2.524000000
H    -1.733000000     7.067000000    -1.475000000
O     0.731000000    -0.776000000     4.788000000
H     0.679000000    -0.572000000     5.721000000
H     1.659000000    -0.950000000     4.632000000
O    -4.914000000     3.788000000    -2.191000000
H    -5.304000000     4.317000000    -1.495000000
H    -4.937000000     2.893000000    -1.854000000
O    -0.849000000     2.718000000    -5.239000000
H    -1.624000000     3.264000000    -5.369000000
H    -0.482000000     3.016000000    -4.407000000
O     3.256000000    -1.978000000     3.907000000
H     3.572000000    -2.426000000     3.123000000
H     3.727000000    -2.396000000     4.628000000
O     5.266000000     2.917000000     0.532000000
H     4.674000000     3.609000000     0.238000000
H     6.142000000     3.256000000     0.347000000
O     6.402000000    -2.687000000     1.075000000
H     5.685000000    -3.205000000     1.441000000
H     6.498000000    -3.011000000     0.179000000
O     0.297000000    -2.821000000     6.612000000
H    -0.343000000    -3.076000000     5.948000000
H    -0.121000000    -2.100000000     7.083000000
O     0.476000000     5.411000000     1.479000000
H     0.370000000     4.462000000     1.410000000
H     0.809000000     5.551000000     2.365000000
O     0.999000000     5.921000000    -3.596000000
H     0.872000000     6.550000000    -4.306000000
H     0.479000000     6.269000000    -2.871000000
O    -4.782000000     1.518000000    -0.855000000
H    -4.401000000     0.675000000    -1.100000000
H    -4.937000000     1.447000000     0.087000000
O    -0.710000000    -7.739000000     1.339000000
H    -0.043000000    -8.267000000     1.778000000
H    -0.230000000    -6.988000000     0.991000000
O    -1.707000000     3.250000000     3.869000000
H    -0.869000000     3.132000000     3.421000000
H    -1.863000000     2.415000000     4.309000000
O     3.690000000    -1.834000000    -2.659000000
H     4.040000000    -2.425000000    -1.992000000
H     4.446000000    -1.323000000    -2.947000000
O    -0.589000000    -1.143000000    -2.729000000
H    -0.276000000    -0.804000000    -1.890000000
H    -0.002000000    -0.755000000    -3.378000000
O    -2.236000000    -4.244000000     5.391000000
H    -1.867000000    -3.612000000     4.774000000
H    -2.051000000    -5.098000000     5.000000000
O     3.448000000     1.100000000    -3.364000000
H     3.013000000     1.953000000    -3.375000000
H     2.825000000     0.508000000    -3.784000000
O    -1.593000000    -6.827000000     3.920000000
H    -1.834000000    -6.778000000     2.995000000
H    -1.892000000    -7.692000000     4.200000000
O    -4.478000000    -6.028000000     1.354000000
H    -3.838000000    -5.317000000     1.327000000
H    -4.082000000    -6.727000000     0.833000000
O     3.959000000    -3.619000000     1.826000000
H     3.123000000    -3.616000000     1.361000000
H     4.167000000    -4.546000000     1.940000000
O    -1.184000000    -2.370000000     3.861000000
H    -0.774000000    -2.783000000     3.101000000
H    -0.506000000    -1.797000000     4.218000000
O     1.041000000    -5.077000000     3.989000000
H     1.216000000    -4.402000000     3.333000000
H     0.492000000    -5.716000000     3.534000000
O    -3.449000000    -1.071000000    -2.485000000
H    -3.639000000    -1.105000000    -3.422000000
H    -2.514000000    -1.265000000    -2.423000000
O     1.035000000     0.420000000    -4.684000000
H     1.280000000     0.373000000    -5.608000000
H     0.409000000     1.142000000    -4.638000000
O    -4.216000000     3.253000000     4.353000000
H    -4.428000000     2.479000000     3.830000000
H    -3.312000000     3.461000000     4.117000000
O    -3.945000000     3.902000000     1.047000000
H    -4.319000000     3.236000000     0.471000000
H    -3.382000000     3.411000000     1.647000000
O    -4.129000000    -1.728000000     3.105000000
H    -3.335000000    -1.423000000     3.544000000
H    -4.777000000    -1.802000000     3.805000000
O    -1.558000000    -3.611000000    -3.685000000
H    -1.942000000    -4.112000000    -2.966000000
H    -1.150000000    -2.857000000    -3.260000000
O     6.168000000     1.282000000    -2.693000000
H     5.309000000     1.318000000    -3.113000000
H     6.311000000     2.170000000    -2.363000000
O    -2.489000000    -4.335000000     1.071000000
H    -3.107000000    -3.636000000     0.855000000
H    -1.682000000    -3.878000000     1.304000000
O     3.867000000    -4.251000000    -0.961000000
H     4.280000000    -4.520000000    -0.141000000
H     3.079000000    -3.780000000    -0.689000000
O     4.120000000    -6.421000000     0.984000000
H     3.278000000    -6.838000000     0.802000000
H     4.655000000    -6.616000000     0.215000000
O     3.432000000     4.192000000    -1.620000000
H     2.945000000     4.974000000    -1.359000000
H     2.919000000     3.818000000    -2.336000000
O     3.935000000     0.820000000    -0.671000000
H     3.374000000     0.710000000    -1.439000000
H     4.497000000     1.563000000    -0.889000000
O     1.960000000     6.575000000    -0.760000000
H     1.760000000     7.451000000    -1.089000000
H     1.198000000     6.337000000    -0.232000000
O    -2.056000000     0.480000000     4.464000000
H    -2.268000000     0.176000000     5.347000000
H    -1.138000000     0.236000000     4.341000000
O    -4.741000000     1.114000000     2.252000000
H    -4.249000000     0.324000000     2.475000000
H    -5.528000000     1.067000000     2.795000000
O    -2.006000000     6.586000000     0.125000000
H    -1.224000000     6.391000000     0.642000000
H    -2.728000000     6.215000000     0.633000000
O    -3.590000000     5.485000000    -4.021000000
H    -3.864000000     4.743000000    -3.482000000
H    -3.225000000     6.113000000    -3.397000000
O     1.226000000    -5.139000000    -2.562000000
H     1.573000000    -4.387000000    -3.043000000
H     0.280000000    -5.097000000    -2.704000000
