161
-3065.47515
C    -1.443000000    -0.219000000     0.468000000
H    -2.519000000    -0.189000000     0.623000000
C    -0.817000000     1.014000000     0.105000000
H    -1.482000000     1.869000000     0.023000000
C     0.503000000     1.077000000    -0.348000000
C     1.152000000     2.319000000    -0.956000000
H     2.230000000     2.165000000    -1.042000000
H     0.771000000     2.518000000    -1.961000000
H     1.047000000     3.230000000    -0.364000000
C     1.218000000    -0.073000000    -0.345000000
H     2.169000000    -0.063000000    -0.871000000
C     0.736000000    -1.242000000     0.257000000
H     1.337000000    -2.147000000     0.300000000
C    -0.615000000    -1.357000000     0.561000000
C    -1.270000000    -2.632000000     0.964000000
O    -0.525000000    -3.447000000     1.520000000
O    -2.484000000    -2.823000000     1.070000000
O     2.982000000     4.633000000    -3.482000000
H     3.900000000     4.887000000    -3.388000000
H     2.541000000     5.052000000    -2.742000000
O    -3.109000000     0.129000000    -2.449000000
H    -3.336000000     0.375000000    -3.346000000
H    -2.183000000    -0.108000000    -2.493000000
O     2.867000000    -5.633000000    -0.985000000
H     3.752000000    -5.689000000    -1.346000000
H     2.409000000    -5.027000000    -1.567000000
O     1.251000000     0.171000000     3.384000000
H     0.644000000     0.079000000     2.649000000
H     1.590000000    -0.713000000     3.526000000
O    -2.535000000     3.543000000     4.175000000
H    -1.618000000     3.793000000     4.282000000
H    -2.867000000     4.132000000     3.498000000
O    -2.213000000    -3.136000000    -2.039000000
H    -1.821000000    -2.264000000    -2.003000000
H    -1.635000000    -3.681000000    -1.505000000
O    -1.318000000    -4.445000000     5.939000000
H    -2.102000000    -4.746000000     5.480000000
H    -0.757000000    -5.220000000     5.989000000
O    -6.241000000    -0.757000000     0.068000000
H    -5.568000000    -1.376000000    -0.215000000
H    -6.454000000    -1.027000000     0.961000000
O    -3.695000000    -7.543000000     0.934000000
H    -3.213000000    -6.754000000     1.183000000
H    -3.246000000    -7.860000000     0.150000000
O    -1.995000000    -7.758000000     3.112000000
H    -2.806000000    -8.080000000     2.719000000
H    -1.705000000    -7.060000000     2.525000000
O     2.516000000    -2.278000000     3.784000000
H     2.744000000    -2.925000000     3.117000000
H     1.587000000    -2.429000000     3.958000000
O    -3.386000000     3.917000000    -1.819000000
H    -2.777000000     3.467000000    -2.404000000
H    -4.037000000     3.253000000    -1.594000000
O     0.625000000    -6.943000000    -0.454000000
H     1.353000000    -6.375000000    -0.706000000
H     0.981000000    -7.494000000     0.243000000
O    -6.341000000    -1.732000000     2.798000000
H    -6.150000000    -2.514000000     2.279000000
H    -5.502000000    -1.498000000     3.196000000
O    -4.216000000    -3.237000000    -3.779000000
H    -4.205000000    -4.184000000    -3.916000000
H    -3.466000000    -3.068000000    -3.209000000
O     0.858000000    -3.806000000    -2.255000000
H     1.258000000    -2.997000000    -2.575000000
H     0.193000000    -4.020000000    -2.910000000
O     4.385000000    -4.486000000    -3.015000000
H     3.583000000    -3.982000000    -3.153000000
H     4.982000000    -4.178000000    -3.696000000
O    -1.900000000     3.641000000    -4.725000000
H    -2.397000000     4.313000000    -5.190000000
H    -0.996000000     3.954000000    -4.746000000
O    -0.410000000     5.253000000     3.953000000
H    -0.181000000     5.228000000     3.024000000
H    -1.099000000     5.914000000     4.012000000
O    -2.997000000     5.683000000     0.171000000
H    -3.700000000     5.415000000     0.762000000
H    -3.039000000     5.057000000    -0.552000000
O     4.051000000     0.089000000    -3.577000000
H     4.196000000     0.394000000    -2.682000000
H     4.930000000    -0.026000000    -3.938000000
O     5.729000000    -0.175000000    -1.095000000
H     6.341000000    -0.911000000    -1.080000000
H     5.358000000    -0.152000000    -0.213000000
O     2.080000000     6.685000000    -1.837000000
H     2.451000000     7.562000000    -1.935000000
H     1.498000000     6.754000000    -1.080000000
O    -2.702000000     0.885000000    -5.150000000
H    -2.408000000     1.796000000    -5.166000000
H    -3.572000000     0.907000000    -5.548000000
O     1.868000000    -1.989000000    -3.923000000
H     2.416000000    -1.206000000    -3.973000000
H     1.857000000    -2.330000000    -4.818000000
O     4.844000000     0.614000000     1.305000000
H     4.173000000     0.855000000     1.944000000
H     5.345000000     1.418000000     1.169000000
O     3.375000000     3.645000000    -6.028000000
H     2.979000000     3.590000000    -5.158000000
H     3.363000000     4.579000000    -6.237000000
O    -1.430000000    -5.923000000     1.212000000
H    -0.922000000    -6.207000000     0.452000000
H    -1.051000000    -5.077000000     1.450000000
O    -2.610000000     0.700000000     3.358000000
H    -2.993000000     1.576000000     3.301000000
H    -2.039000000     0.738000000     4.126000000
O    -0.536000000    -0.597000000    -5.709000000
H    -1.111000000     0.142000000    -5.512000000
H     0.286000000    -0.385000000    -5.267000000
O    -6.326000000    -4.266000000     1.159000000
H    -7.158000000    -4.049000000     0.737000000
H    -5.661000000    -4.012000000     0.520000000
O     1.928000000     1.483000000    -4.840000000
H     2.806000000     1.553000000    -4.465000000
H     1.549000000     2.355000000    -4.727000000
O    -0.216000000    -2.719000000     4.011000000
H    -0.425000000    -2.988000000     3.117000000
H    -0.643000000    -3.373000000     4.564000000
O    -3.537000000    -1.793000000     3.318000000
H    -3.343000000    -2.027000000     2.410000000
H    -3.178000000    -0.912000000     3.420000000
O    -2.963000000    -4.880000000     3.752000000
H    -3.170000000    -3.945000000     3.777000000
H    -2.666000000    -5.035000000     2.855000000
O     4.952000000     6.162000000     0.666000000
H     5.452000000     5.636000000     1.290000000
H     4.038000000     6.032000000     0.921000000
O    -4.666000000    -2.979000000    -0.432000000
H    -3.940000000    -2.800000000     0.165000000
H    -4.247000000    -3.294000000    -1.232000000
O     0.637000000     4.230000000    -4.686000000
H     0.800000000     4.669000000    -5.520000000
H     1.148000000     4.729000000    -4.048000000
O    -5.238000000     1.540000000    -1.451000000
H    -5.401000000     0.989000000    -0.686000000
H    -4.572000000     1.066000000    -1.949000000
O    -0.493000000    -1.051000000    -2.432000000
H     0.257000000    -1.440000000    -2.882000000
H    -0.113000000    -0.601000000    -1.678000000
O     4.406000000    -6.021000000     1.291000000
H     4.069000000    -5.446000000     1.977000000
H     3.666000000    -6.145000000     0.697000000
O     2.184000000    -6.460000000     3.941000000
H     2.158000000    -7.229000000     3.370000000
H     2.186000000    -5.716000000     3.339000000
O     3.372000000     1.995000000     3.955000000
H     2.616000000     1.425000000     3.813000000
H     4.063000000     1.405000000     4.257000000
O     1.035000000     7.362000000     0.809000000
H     1.556000000     7.515000000     1.597000000
H     0.621000000     8.206000000     0.628000000
O    -0.236000000     5.245000000     1.229000000
H    -1.096000000     5.280000000     0.811000000
H     0.166000000     6.088000000     1.021000000
O     6.169000000     3.029000000     0.617000000
H     6.315000000     3.632000000     1.346000000
H     6.386000000     3.539000000    -0.163000000
O     1.787000000    -4.393000000     1.783000000
H     1.883000000    -4.717000000     0.887000000
H     0.984000000    -3.872000000     1.764000000
O     2.966000000     4.576000000     1.845000000
H     3.224000000     3.805000000     2.350000000
H     2.105000000     4.352000000     1.490000000
