161
-3039.03905
C    -1.510000000    -0.206000000    -0.244000000
H    -2.560000000    -0.440000000    -0.398000000
C    -0.541000000    -1.213000000    -0.357000000
H    -0.877000000    -2.240000000    -0.474000000
C     0.824000000    -0.872000000    -0.167000000
C     1.929000000    -1.922000000    -0.094000000
H     1.584000000    -2.882000000     0.297000000
H     2.306000000    -2.132000000    -1.097000000
H     2.769000000    -1.625000000     0.538000000
C     1.207000000     0.439000000     0.142000000
H     2.247000000     0.659000000     0.369000000
C     0.270000000     1.419000000     0.282000000
H     0.602000000     2.418000000     0.553000000
C    -1.087000000     1.142000000     0.007000000
C    -2.099000000     2.189000000     0.137000000
O    -1.789000000     3.384000000     0.158000000
O    -3.270000000     1.880000000     0.351000000
O     0.778000000    -3.538000000    -4.325000000
H     0.357000000    -3.598000000    -5.183000000
H     0.217000000    -4.053000000    -3.746000000
O    -4.225000000     6.352000000     2.271000000
H    -4.509000000     7.253000000     2.427000000
H    -3.274000000     6.415000000     2.172000000
O    -5.810000000     6.394000000    -0.073000000
H    -5.673000000     7.221000000    -0.535000000
H    -5.063000000     6.325000000     0.522000000
O     0.111000000     4.204000000    -1.351000000
H    -0.390000000     4.170000000    -2.166000000
H    -0.533000000     4.021000000    -0.667000000
O     3.791000000    -0.842000000     3.718000000
H     2.870000000    -0.992000000     3.932000000
H     4.186000000    -0.563000000     4.544000000
O    -0.142000000     5.149000000     3.057000000
H    -0.810000000     5.157000000     2.372000000
H    -0.331000000     5.924000000     3.586000000
O    -3.559000000     0.518000000    -3.949000000
H    -4.503000000     0.397000000    -4.059000000
H    -3.481000000     1.179000000    -3.262000000
O    -5.679000000    -0.963000000    -1.743000000
H    -6.431000000    -0.371000000    -1.719000000
H    -5.767000000    -1.429000000    -2.574000000
O     1.053000000    -6.047000000     2.523000000
H     0.302000000    -6.405000000     2.996000000
H     0.999000000    -6.445000000     1.654000000
O    -0.634000000    -6.331000000    -2.138000000
H    -1.074000000    -5.489000000    -2.256000000
H    -0.753000000    -6.782000000    -2.974000000
O     3.270000000    -2.965000000    -5.105000000
H     2.433000000    -3.231000000    -4.725000000
H     3.033000000    -2.356000000    -5.804000000
O     3.350000000     3.436000000    -2.420000000
H     4.047000000     3.315000000    -1.776000000
H     2.670000000     3.917000000    -1.949000000
O     0.414000000     1.558000000    -2.886000000
H     0.425000000     1.180000000    -2.007000000
H     0.415000000     0.802000000    -3.472000000
O     4.958000000    -4.665000000    -3.749000000
H     5.199000000    -4.121000000    -3.000000000
H     4.294000000    -4.154000000    -4.213000000
O     1.423000000     7.231000000     1.233000000
H     1.821000000     6.412000000     0.939000000
H     0.744000000     6.960000000     1.850000000
O    -2.038000000     2.333000000    -4.898000000
H    -2.672000000     1.673000000    -4.617000000
H    -2.035000000     2.979000000    -4.191000000
O    -1.636000000     6.070000000     0.730000000
H    -1.125000000     6.410000000    -0.005000000
H    -1.921000000     5.203000000     0.442000000
O     1.409000000    -1.670000000     4.680000000
H     1.217000000    -2.358000000     4.042000000
H     0.863000000    -0.933000000     4.407000000
O    -3.594000000     2.755000000    -2.307000000
H    -3.372000000     3.670000000    -2.475000000
H    -3.608000000     2.683000000    -1.353000000
O    -4.900000000     3.212000000     1.799000000
H    -4.197000000     2.750000000     1.341000000
H    -4.450000000     3.738000000     2.460000000
O     3.684000000    -4.832000000    -0.003000000
H     4.158000000    -4.062000000    -0.319000000
H     4.023000000    -5.555000000    -0.531000000
O    -6.574000000     2.390000000    -2.478000000
H    -5.624000000     2.467000000    -2.383000000
H    -6.895000000     3.289000000    -2.404000000
O    -5.798000000    -1.278000000     3.246000000
H    -5.869000000    -0.852000000     2.391000000
H    -5.521000000    -2.172000000     3.045000000
O    -7.197000000     4.122000000     0.800000000
H    -6.853000000     4.975000000     0.534000000
H    -6.434000000     3.650000000     1.133000000
O     4.065000000    -0.960000000    -3.128000000
H     4.213000000    -1.339000000    -3.994000000
H     3.439000000    -0.252000000    -3.279000000
O    -3.920000000    -3.234000000    -0.968000000
H    -4.306000000    -2.365000000    -1.080000000
H    -4.670000000    -3.828000000    -0.944000000
O     0.819000000    -6.583000000    -0.022000000
H     1.623000000    -6.232000000    -0.403000000
H     0.175000000    -6.526000000    -0.728000000
O    -3.226000000    -5.578000000     0.662000000
H    -2.916000000    -4.983000000    -0.021000000
H    -3.991000000    -6.007000000     0.277000000
O     3.610000000    -6.635000000     2.450000000
H     3.779000000    -6.245000000     1.593000000
H     2.656000000    -6.669000000     2.514000000
O     1.893000000    -3.338000000     2.748000000
H     2.186000000    -3.131000000     1.860000000
H     1.541000000    -4.226000000     2.682000000
O    -2.116000000    -1.719000000    -4.448000000
H    -1.316000000    -1.194000000    -4.435000000
H    -2.793000000    -1.133000000    -4.110000000
O     1.609000000     3.548000000     4.359000000
H     0.857000000     4.023000000     4.006000000
H     1.716000000     3.893000000     5.245000000
O     2.368000000     4.925000000     0.333000000
H     1.683000000     4.334000000     0.021000000
H     2.830000000     4.423000000     1.004000000
O     5.057000000     1.208000000     1.993000000
H     5.854000000     0.945000000     2.453000000
H     4.606000000     0.384000000     1.807000000
O    -1.812000000    -3.863000000    -2.982000000
H    -1.812000000    -3.218000000    -3.689000000
H    -2.594000000    -3.657000000    -2.469000000
O    -0.984000000     4.826000000    -3.819000000
H    -0.566000000     5.498000000    -3.280000000
H    -0.273000000     4.471000000    -4.352000000
O     0.584000000    -0.827000000    -4.515000000
H     0.668000000    -1.718000000    -4.177000000
H     0.964000000    -0.867000000    -5.393000000
O     6.395000000    -1.854000000     2.897000000
H     6.812000000    -1.052000000     3.213000000
H     5.561000000    -1.891000000     3.364000000
O    -5.476000000     0.404000000     0.755000000
H    -5.598000000    -0.185000000     0.011000000
H    -4.604000000     0.777000000     0.626000000
O    -7.769000000     1.500000000     1.862000000
H    -7.565000000     2.366000000     1.510000000
H    -7.049000000     0.945000000     1.563000000
O    -3.031000000     1.166000000     4.730000000
H    -2.908000000     0.900000000     3.819000000
H    -3.076000000     0.342000000     5.216000000
O     7.097000000    -1.597000000     0.102000000
H     7.358000000    -0.687000000    -0.044000000
H     6.653000000    -1.585000000     0.950000000
O     5.914000000     3.740000000     1.125000000
H     5.371000000     2.989000000     1.365000000
H     6.335000000     4.002000000     1.944000000
O     0.337000000     0.840000000     4.356000000
H     0.149000000     0.850000000     5.295000000
H     0.800000000     1.663000000     4.196000000
O     5.374000000    -2.979000000    -1.717000000
H     4.842000000    -2.261000000    -2.058000000
H     5.909000000    -2.577000000    -1.032000000
O    -2.967000000    -2.634000000     2.106000000
H    -2.558000000    -2.857000000     1.270000000
H    -2.778000000    -1.703000000     2.224000000
O    -0.908000000    -0.870000000     2.958000000
H    -0.298000000    -0.317000000     3.446000000
H    -0.710000000    -0.691000000     2.039000000
O     3.202000000     3.116000000     2.320000000
H     3.641000000     2.315000000     2.609000000
H     2.547000000     3.287000000     2.997000000
