161
-3035.20347
C    -1.016000000     1.041000000    -0.019000000
H    -1.603000000     1.952000000    -0.106000000
C     0.206000000     1.048000000    -0.656000000
H     0.522000000     1.860000000    -1.306000000
C     1.026000000    -0.043000000    -0.631000000
C     2.241000000    -0.048000000    -1.490000000
H     2.026000000    -0.572000000    -2.424000000
H     2.429000000     0.984000000    -1.794000000
H     3.046000000    -0.482000000    -0.894000000
C     0.665000000    -1.141000000     0.084000000
H     1.316000000    -2.010000000     0.034000000
C    -0.458000000    -1.163000000     0.919000000
H    -0.480000000    -1.960000000     1.658000000
C    -1.335000000    -0.039000000     0.812000000
C    -2.598000000     0.101000000     1.675000000
O    -2.841000000    -0.701000000     2.543000000
O    -3.147000000     1.173000000     1.589000000
O    -4.060000000     4.279000000    -1.606000000
H    -3.896000000     4.973000000    -0.967000000
H    -4.911000000     4.497000000    -1.984000000
O    -0.907000000    -1.024000000    -2.851000000
H    -0.724000000    -1.200000000    -1.928000000
H    -1.787000000    -0.648000000    -2.854000000
O    -2.662000000     4.163000000    -4.134000000
H    -1.772000000     4.511000000    -4.079000000
H    -3.022000000     4.283000000    -3.255000000
O     6.934000000    -3.319000000    -2.175000000
H     6.593000000    -2.454000000    -1.948000000
H     7.676000000    -3.447000000    -1.584000000
O    -3.460000000    -0.368000000     5.182000000
H    -3.485000000    -0.596000000     4.253000000
H    -2.857000000     0.374000000     5.230000000
O    -6.842000000     0.256000000     5.275000000
H    -6.507000000     0.300000000     4.379000000
H    -7.159000000     1.140000000     5.456000000
O    -2.424000000    -4.585000000    -0.559000000
H    -2.421000000    -5.271000000    -1.226000000
H    -1.635000000    -4.750000000    -0.042000000
O     2.347000000     3.903000000    -0.097000000
H     3.113000000     3.342000000     0.023000000
H     2.070000000     3.741000000    -0.999000000
O     4.609000000     2.161000000    -0.256000000
H     4.885000000     1.451000000    -0.837000000
H     5.247000000     2.858000000    -0.410000000
O     2.096000000     1.172000000    -5.271000000
H     2.311000000     0.245000000    -5.369000000
H     1.199000000     1.177000000    -4.937000000
O    -3.515000000    -3.407000000     3.046000000
H    -3.111000000    -2.539000000     3.021000000
H    -3.954000000    -3.490000000     2.200000000
O     0.463000000    -1.385000000    -5.299000000
H     0.205000000    -0.855000000    -4.544000000
H    -0.333000000    -1.855000000    -5.546000000
O    -1.849000000    -3.659000000    -3.234000000
H    -2.081000000    -3.659000000    -2.305000000
H    -1.504000000    -2.781000000    -3.395000000
O    -3.615000000    -0.496000000    -3.121000000
H    -3.850000000    -1.301000000    -2.660000000
H    -4.017000000     0.202000000    -2.605000000
O    -0.582000000    -0.469000000     4.217000000
H    -1.275000000    -0.469000000     3.558000000
H    -0.851000000    -1.137000000     4.848000000
O    -6.956000000    -0.362000000     2.192000000
H    -6.387000000     0.292000000     2.598000000
H    -7.774000000     0.105000000     2.023000000
O     3.807000000    -3.277000000    -1.972000000
H     3.599000000    -2.454000000    -2.415000000
H     3.584000000    -3.955000000    -2.610000000
O    -6.174000000     3.969000000     1.022000000
H    -6.277000000     4.404000000     0.176000000
H    -5.235000000     3.797000000     1.090000000
O    -5.274000000     1.345000000     3.160000000
H    -4.479000000     1.180000000     2.654000000
H    -4.983000000     1.882000000     3.897000000
O     1.761000000     0.646000000     4.565000000
H     2.180000000     0.802000000     3.718000000
H     0.901000000     0.289000000     4.345000000
O     5.426000000    -0.270000000     1.935000000
H     5.830000000    -0.753000000     2.655000000
H     6.080000000    -0.290000000     1.236000000
O    -2.022000000     1.971000000     5.579000000
H    -1.078000000     2.074000000     5.459000000
H    -2.371000000     2.859000000     5.508000000
O     2.483000000    -4.259000000     0.020000000
H     2.747000000    -3.811000000     0.824000000
H     2.944000000    -3.792000000    -0.677000000
O     3.752000000    -2.884000000     2.061000000
H     4.411000000    -2.208000000     1.904000000
H     3.716000000    -2.966000000     3.014000000
O    -0.372000000     4.280000000     3.593000000
H    -1.289000000     4.126000000     3.821000000
H     0.116000000     3.647000000     4.120000000
O     2.238000000     3.863000000    -4.547000000
H     2.889000000     4.266000000    -3.972000000
H     2.143000000     2.971000000    -4.211000000
O     2.164000000     6.696000000    -0.330000000
H     2.383000000     5.765000000    -0.371000000
H     1.208000000     6.716000000    -0.282000000
O     2.837000000     0.954000000     1.921000000
H     3.351000000     0.218000000     1.590000000
H     2.628000000     1.469000000     1.142000000
O    -0.649000000     1.902000000    -5.262000000
H    -0.184000000     2.332000000    -5.979000000
H    -1.013000000     2.622000000    -4.746000000
O    -6.103000000    -2.677000000     0.729000000
H    -6.255000000    -1.795000000     1.067000000
H    -6.970000000    -2.985000000     0.466000000
O     4.625000000    -0.132000000    -5.912000000
H     5.047000000    -0.127000000    -6.771000000
H     4.158000000    -0.967000000    -5.879000000
O     3.876000000     4.761000000    -2.650000000
H     4.814000000     4.575000000    -2.695000000
H     3.826000000     5.700000000    -2.472000000
O     0.423000000    -2.816000000     6.173000000
H     0.328000000    -3.146000000     5.279000000
H     1.087000000    -3.381000000     6.567000000
O    -4.409000000    -2.692000000    -1.657000000
H    -4.960000000    -2.395000000    -0.933000000
H    -3.856000000    -3.373000000    -1.274000000
O    -3.294000000    -3.193000000     5.840000000
H    -3.251000000    -3.065000000     4.893000000
H    -3.390000000    -2.311000000     6.198000000
O    -1.844000000    -5.458000000     4.241000000
H    -1.051000000    -5.042000000     3.903000000
H    -2.560000000    -4.924000000     3.896000000
O     5.907000000    -4.520000000     0.238000000
H     5.314000000    -5.187000000     0.583000000
H     5.394000000    -4.068000000    -0.432000000
O     6.736000000    -0.540000000    -0.418000000
H     6.609000000    -0.068000000    -1.241000000
H     7.617000000    -0.908000000    -0.485000000
O     6.111000000     0.855000000    -2.836000000
H     5.505000000     0.385000000    -3.409000000
H     6.979000000     0.642000000    -3.179000000
O    -6.051000000    -4.018000000     4.490000000
H    -6.439000000    -3.817000000     3.638000000
H    -5.150000000    -3.702000000     4.423000000
O    -2.950000000     3.849000000     1.578000000
H    -2.065000000     3.937000000     1.223000000
H    -3.038000000     2.916000000     1.772000000
O     0.492000000    -3.883000000     3.475000000
H     0.169000000    -3.710000000     2.591000000
H     1.416000000    -4.100000000     3.354000000
O    -0.306000000     6.107000000    -1.053000000
H    -1.239000000     6.319000000    -1.004000000
H    -0.203000000     5.348000000    -0.480000000
O    -4.376000000     1.699000000    -1.319000000
H    -4.393000000     1.689000000    -0.362000000
H    -4.165000000     2.605000000    -1.545000000
O     0.035000000     5.440000000    -3.809000000
H     0.206000000     5.818000000    -2.946000000
H     0.767000000     4.841000000    -3.957000000
O    -0.116000000     3.999000000     0.826000000
H    -0.219000000     4.004000000     1.777000000
H     0.801000000     3.765000000     0.685000000
O    -0.155000000    -5.055000000     0.546000000
H    -0.262000000    -5.961000000     0.837000000
H     0.772000000    -4.985000000     0.318000000
O     3.174000000    -2.188000000    -4.970000000
H     2.262000000    -1.926000000    -4.840000000
H     3.120000000    -3.083000000    -5.304000000
