161
-3029.76878
C     0.307000000    -0.357000000     1.436000000
H     0.665000000    -0.626000000     2.427000000
C     0.781000000    -1.009000000     0.290000000
H     1.612000000    -1.703000000     0.385000000
C     0.399000000    -0.575000000    -0.993000000
C     0.967000000    -1.290000000    -2.220000000
H     0.294000000    -2.057000000    -2.607000000
H     1.240000000    -0.603000000    -3.024000000
H     1.879000000    -1.836000000    -1.971000000
C    -0.573000000     0.400000000    -1.118000000
H    -0.914000000     0.667000000    -2.115000000
C    -1.139000000     1.012000000     0.006000000
H    -1.774000000     1.876000000    -0.169000000
C    -0.613000000     0.704000000     1.300000000
C    -0.982000000     1.543000000     2.463000000
O    -1.983000000     2.192000000     2.511000000
O    -0.170000000     1.661000000     3.402000000
O    -1.545000000     4.601000000    -0.905000000
H    -1.799000000     4.347000000    -0.017000000
H    -0.599000000     4.457000000    -0.933000000
O    -1.835000000     6.920000000     4.892000000
H    -1.646000000     6.656000000     3.991000000
H    -2.783000000     6.816000000     4.977000000
O     3.398000000    -3.556000000     0.365000000
H     3.973000000    -4.082000000     0.920000000
H     3.854000000    -3.509000000    -0.475000000
O    -5.885000000     3.006000000    -3.737000000
H    -5.245000000     2.782000000    -3.062000000
H    -6.721000000     3.044000000    -3.272000000
O    -4.497000000     0.273000000    -0.349000000
H    -4.027000000    -0.561000000    -0.382000000
H    -5.317000000     0.104000000    -0.812000000
O     1.118000000     4.091000000     3.383000000
H     0.698000000     3.270000000     3.126000000
H     0.725000000     4.751000000     2.811000000
O    -1.378000000    -3.208000000     4.358000000
H    -2.199000000    -3.016000000     3.906000000
H    -1.006000000    -2.349000000     4.555000000
O     5.064000000    -3.707000000    -1.953000000
H     4.673000000    -4.090000000    -2.738000000
H     5.875000000    -3.302000000    -2.262000000
O    -5.485000000    -1.864000000    -3.553000000
H    -5.696000000    -1.970000000    -4.481000000
H    -4.530000000    -1.916000000    -3.517000000
O    -3.859000000     0.467000000     2.321000000
H    -4.012000000     0.453000000     1.376000000
H    -3.126000000     1.072000000     2.435000000
O    -1.356000000     6.406000000     2.118000000
H    -0.406000000     6.522000000     2.090000000
H    -1.708000000     7.265000000     1.885000000
O    -2.655000000    -1.419000000     6.714000000
H    -1.991000000    -1.071000000     6.119000000
H    -3.160000000    -0.651000000     6.983000000
O     3.692000000    -0.800000000    -7.266000000
H     3.639000000     0.050000000    -6.830000000
H     4.509000000    -0.763000000    -7.763000000
O     4.430000000     1.697000000    -2.258000000
H     4.983000000     2.443000000    -2.492000000
H     3.942000000     1.993000000    -1.489000000
O     3.136000000    -6.570000000    -1.315000000
H     3.308000000    -5.998000000    -2.062000000
H     3.739000000    -6.266000000    -0.637000000
O    -2.348000000    -1.926000000    -1.003000000
H    -2.084000000    -2.287000000    -1.849000000
H    -1.544000000    -1.556000000    -0.638000000
O    -0.383000000    -0.500000000     4.861000000
H     0.527000000    -0.729000000     5.051000000
H    -0.328000000     0.338000000     4.403000000
O    -4.861000000    -2.862000000     0.198000000
H    -3.956000000    -2.818000000    -0.110000000
H    -4.794000000    -3.203000000     1.090000000
O     3.177000000    -0.389000000     6.182000000
H     2.671000000    -1.202000000     6.163000000
H     2.529000000     0.292000000     6.359000000
O     4.460000000    -5.352000000    -4.240000000
H     4.402000000    -4.589000000    -4.816000000
H     3.757000000    -5.930000000    -4.538000000
O    -5.148000000     5.407000000     0.133000000
H    -5.515000000     4.524000000     0.089000000
H    -4.210000000     5.271000000     0.271000000
O    -6.219000000     2.820000000     0.488000000
H    -5.755000000     2.078000000     0.101000000
H    -6.873000000     2.422000000     1.062000000
O     0.877000000    -4.496000000     3.748000000
H     0.814000000    -4.816000000     2.849000000
H     0.088000000    -3.967000000     3.870000000
O    -2.432000000     3.798000000    -4.863000000
H    -2.871000000     4.071000000    -5.669000000
H    -3.098000000     3.306000000    -4.383000000
O    -2.673000000     2.734000000     5.016000000
H    -3.423000000     3.285000000     4.792000000
H    -2.348000000     2.418000000     4.173000000
O     2.353000000     2.131000000    -4.295000000
H     1.758000000     1.607000000    -3.760000000
H     3.196000000     2.070000000    -3.846000000
O    -2.948000000     4.308000000     1.422000000
H    -2.465000000     3.662000000     1.938000000
H    -2.517000000     5.140000000     1.617000000
O     1.591000000    -2.844000000     5.884000000
H     1.716000000    -3.321000000     5.064000000
H     1.452000000    -3.527000000     6.539000000
O     2.979000000     4.385000000     5.913000000
H     3.807000000     3.991000000     5.640000000
H     2.309000000     3.871000000     5.462000000
O     2.719000000     1.477000000    -0.085000000
H     3.282000000     1.749000000     0.640000000
H     2.192000000     0.764000000     0.276000000
O    -4.502000000     4.293000000     3.799000000
H    -4.203000000     4.442000000     2.902000000
H    -4.779000000     5.156000000     4.106000000
O     0.598000000    -6.627000000    -2.063000000
H     0.579000000    -6.483000000    -3.009000000
H     1.476000000    -6.967000000    -1.890000000
O    -3.191000000     1.197000000     7.274000000
H    -3.150000000     1.699000000     6.459000000
H    -2.421000000     1.481000000     7.768000000
O    -1.900000000    -0.733000000    -5.053000000
H    -1.580000000     0.155000000    -5.212000000
H    -2.089000000    -1.079000000    -5.925000000
O    -3.887000000    -2.151000000     3.335000000
H    -4.720000000    -2.299000000     3.784000000
H    -3.949000000    -1.255000000     3.004000000
O     5.594000000    -0.779000000    -1.701000000
H     4.980000000    -1.495000000    -1.534000000
H     5.063000000     0.014000000    -1.628000000
O     1.118000000     3.734000000    -0.740000000
H     1.355000000     2.824000000    -0.562000000
H     1.638000000     4.243000000    -0.118000000
O    -1.079000000     4.002000000     6.741000000
H    -0.801000000     4.749000000     6.212000000
H    -1.718000000     3.546000000     6.194000000
O    -0.855000000     5.533000000    -3.429000000
H    -1.169000000     5.294000000    -2.557000000
H    -1.253000000     4.887000000    -4.012000000
O    -2.149000000    -6.475000000    -2.642000000
H    -1.365000000    -6.171000000    -2.184000000
H    -2.769000000    -5.750000000    -2.560000000
O    -2.186000000    -2.948000000    -3.402000000
H    -2.625000000    -3.537000000    -4.016000000
H    -2.045000000    -2.143000000    -3.900000000
O    -6.020000000     0.222000000     3.912000000
H    -5.315000000     0.675000000     3.450000000
H    -6.569000000    -0.141000000     3.216000000
O     4.021000000     1.920000000    -6.361000000
H     4.798000000     2.479000000    -6.358000000
H     3.646000000     2.027000000    -5.486000000
O     3.258000000     2.907000000     2.348000000
H     3.986000000     3.469000000     2.615000000
H     2.495000000     3.277000000     2.791000000
O     1.142000000    -5.306000000     1.177000000
H     1.662000000    -4.503000000     1.194000000
H     1.277000000    -5.660000000     0.298000000
O    -6.955000000     2.657000000     4.707000000
H    -6.352000000     3.075000000     4.093000000
H    -6.713000000     1.731000000     4.689000000
O     1.018000000     1.797000000     6.080000000
H     0.128000000     1.731000000     6.426000000
H     0.899000000     1.996000000     5.151000000
O    -3.565000000     2.233000000    -2.173000000
H    -2.642000000     2.457000000    -2.061000000
H    -3.691000000     1.455000000    -1.631000000
