161
-3017.29736
C     0.295000000     0.862000000     1.189000000
H     0.626000000     1.548000000     1.964000000
C     1.215000000     0.286000000     0.300000000
H     2.273000000     0.481000000     0.455000000
C     0.898000000    -0.487000000    -0.856000000
C     1.854000000    -1.309000000    -1.668000000
H     2.795000000    -0.882000000    -2.022000000
H     2.176000000    -2.090000000    -0.975000000
H     1.265000000    -1.785000000    -2.455000000
C    -0.478000000    -0.547000000    -1.048000000
H    -0.904000000    -1.164000000    -1.835000000
C    -1.437000000     0.055000000    -0.222000000
H    -2.493000000     0.124000000    -0.473000000
C    -1.036000000     0.684000000     0.970000000
C    -2.094000000     1.256000000     1.963000000
O    -3.240000000     1.405000000     1.614000000
O    -1.713000000     1.557000000     3.095000000
O    -1.287000000     5.008000000    -2.265000000
H    -1.066000000     4.080000000    -2.186000000
H    -2.015000000     5.029000000    -2.885000000
O     5.370000000    -1.265000000    -0.148000000
H     5.620000000    -1.190000000    -1.069000000
H     4.464000000    -0.958000000    -0.120000000
O     8.419000000    -0.821000000    -2.026000000
H     7.520000000    -0.551000000    -2.209000000
H     8.943000000    -0.381000000    -2.695000000
O    -5.936000000     0.228000000    -3.017000000
H    -6.244000000     1.042000000    -2.620000000
H    -6.708000000    -0.337000000    -3.035000000
O    -0.278000000     3.257000000     4.437000000
H    -0.809000000     2.592000000     4.000000000
H    -0.873000000     3.997000000     4.557000000
O    -3.125000000    -1.372000000    -5.096000000
H    -2.967000000    -1.534000000    -4.166000000
H    -3.463000000    -0.477000000    -5.129000000
O    -0.558000000     2.201000000    -2.127000000
H     0.213000000     1.750000000    -1.783000000
H    -1.292000000     1.827000000    -1.640000000
O    -3.312000000    -2.425000000     1.804000000
H    -2.838000000    -3.189000000     1.477000000
H    -3.631000000    -1.985000000     1.016000000
O     4.430000000     2.084000000    -1.779000000
H     3.475000000     2.141000000    -1.808000000
H     4.638000000     2.025000000    -0.846000000
O    -0.766000000     2.177000000    -5.266000000
H    -0.651000000     2.129000000    -4.317000000
H    -0.073000000     1.619000000    -5.620000000
O    -3.277000000     1.440000000    -2.531000000
H    -3.513000000     2.367000000    -2.538000000
H    -4.061000000     0.991000000    -2.845000000
O    -5.631000000     1.979000000     2.424000000
H    -4.739000000     1.821000000     2.116000000
H    -5.584000000     2.822000000     2.874000000
O    -7.560000000     4.144000000     0.135000000
H    -6.789000000     3.668000000     0.443000000
H    -8.279000000     3.518000000     0.223000000
O    -3.651000000     2.096000000     5.261000000
H    -3.133000000     1.859000000     4.492000000
H    -4.323000000     1.416000000     5.316000000
O    -2.967000000    -2.681000000     4.627000000
H    -3.281000000    -2.588000000     3.727000000
H    -3.757000000    -2.851000000     5.140000000
O     1.881000000    -0.183000000     4.470000000
H     1.929000000     0.737000000     4.213000000
H     1.030000000    -0.479000000     4.146000000
O     4.339000000    -3.806000000     1.781000000
H     4.795000000    -3.676000000     0.949000000
H     4.753000000    -3.185000000     2.381000000
O    -2.034000000     5.281000000     4.712000000
H    -2.925000000     5.408000000     5.037000000
H    -1.482000000     5.760000000     5.330000000
O     3.443000000    -1.531000000    -4.488000000
H     3.527000000    -1.142000000    -5.358000000
H     2.499000000    -1.577000000    -4.336000000
O     3.982000000    -1.663000000     3.428000000
H     3.269000000    -1.086000000     3.702000000
H     3.571000000    -2.521000000     3.330000000
O     1.192000000    -5.101000000    -1.451000000
H     1.600000000    -4.652000000    -2.192000000
H     0.555000000    -5.692000000    -1.851000000
O     4.921000000     1.700000000     1.116000000
H     5.833000000     1.451000000     1.268000000
H     4.606000000     1.989000000     1.972000000
O    -0.976000000    -0.550000000     4.796000000
H    -1.539000000    -1.321000000     4.715000000
H    -1.373000000     0.098000000     4.215000000
O    -3.769000000    -1.814000000    -2.260000000
H    -4.420000000    -1.113000000    -2.272000000
H    -4.128000000    -2.465000000    -1.658000000
O    -0.384000000     4.677000000     0.732000000
H    -1.176000000     4.718000000     1.268000000
H    -0.690000000     4.384000000    -0.126000000
O    -0.478000000    -3.261000000     0.302000000
H    -0.603000000    -2.661000000    -0.433000000
H    -0.126000000    -4.057000000    -0.096000000
O     0.386000000     1.600000000     7.137000000
H     0.061000000     2.231000000     6.494000000
H     0.444000000     0.775000000     6.655000000
O     0.966000000    -3.143000000     2.619000000
H     0.306000000    -3.012000000     1.938000000
H     1.758000000    -3.391000000     2.141000000
O     1.224000000     6.562000000     1.905000000
H     0.495000000     5.942000000     1.888000000
H     0.989000000     7.225000000     1.256000000
O    -2.649000000     4.197000000     1.993000000
H    -2.685000000     4.572000000     2.873000000
H    -2.403000000     3.282000000     2.132000000
O     0.053000000    -4.965000000    -5.801000000
H     0.709000000    -5.442000000    -6.309000000
H    -0.749000000    -5.477000000    -5.905000000
O     1.435000000    -2.391000000     5.967000000
H     0.705000000    -2.946000000     5.692000000
H     1.528000000    -1.751000000     5.261000000
O     2.380000000     3.149000000     3.877000000
H     1.438000000     3.191000000     4.040000000
H     2.687000000     4.044000000     4.017000000
O    -5.015000000    -0.650000000     0.292000000
H    -5.661000000    -0.289000000     0.900000000
H    -4.286000000    -0.030000000     0.322000000
O     5.636000000    -0.469000000    -3.153000000
H     5.329000000     0.424000000    -2.996000000
H     4.953000000    -0.867000000    -3.692000000
O     1.038000000     0.333000000    -6.209000000
H     1.870000000     0.781000000    -6.365000000
H     1.032000000    -0.387000000    -6.839000000
O    -3.050000000     3.443000000     7.683000000
H    -3.622000000     4.208000000     7.622000000
H    -3.362000000     2.855000000     6.996000000
O     6.670000000    -0.543000000     3.581000000
H     7.123000000    -1.320000000     3.254000000
H     5.747000000    -0.704000000     3.386000000
O     5.919000000    -6.012000000    -1.600000000
H     5.308000000    -5.276000000    -1.556000000
H     6.501000000    -5.797000000    -2.329000000
O     0.804000000    -2.590000000    -4.619000000
H    -0.054000000    -2.423000000    -4.230000000
H     0.706000000    -3.433000000    -5.062000000
O     2.662000000    -4.439000000    -3.659000000
H     2.249000000    -3.687000000    -4.083000000
H     3.256000000    -4.792000000    -4.321000000
O    -1.498000000    -3.378000000    -2.750000000
H    -2.383000000    -3.023000000    -2.656000000
H    -1.610000000    -4.325000000    -2.667000000
O    -3.799000000     5.607000000     0.191000000
H    -3.526000000     4.971000000     0.853000000
H    -3.172000000     5.493000000    -0.523000000
O    -5.787000000     0.336000000     4.760000000
H    -5.892000000     0.778000000     3.918000000
H    -6.251000000    -0.495000000     4.654000000
O     2.359000000     3.965000000    -1.336000000
H     2.670000000     4.863000000    -1.451000000
H     2.169000000     3.896000000    -0.400000000
O    -8.232000000     1.859000000     3.311000000
H    -8.280000000     2.792000000     3.520000000
H    -7.447000000     1.775000000     2.769000000
O     1.282000000    -5.760000000     1.069000000
H     1.348000000    -5.545000000     0.139000000
H     0.342000000    -5.769000000     1.247000000
O     3.912000000    -4.064000000    -1.268000000
H     3.110000000    -4.405000000    -0.874000000
H     3.695000000    -3.952000000    -2.194000000
