161
-3038.30559
C     0.810000000     1.038000000     0.540000000
H     1.592000000     1.744000000     0.806000000
C     1.111000000     0.226000000    -0.518000000
H     2.071000000     0.361000000    -1.009000000
C     0.168000000    -0.722000000    -0.972000000
C     0.560000000    -1.571000000    -2.202000000
H    -0.110000000    -2.421000000    -2.349000000
H     0.689000000    -0.991000000    -3.119000000
H     1.565000000    -1.930000000    -1.970000000
C    -0.984000000    -0.913000000    -0.260000000
H    -1.759000000    -1.628000000    -0.522000000
C    -1.231000000    -0.129000000     0.823000000
H    -2.205000000    -0.222000000     1.297000000
C    -0.356000000     0.930000000     1.208000000
C    -0.560000000     1.793000000     2.454000000
O    -1.669000000     1.847000000     2.950000000
O     0.306000000     2.584000000     2.841000000
O    -1.972000000     3.779000000     4.657000000
H    -2.367000000     4.463000000     4.117000000
H    -1.685000000     3.114000000     4.030000000
O    -1.663000000     0.329000000    -7.402000000
H    -0.712000000     0.423000000    -7.465000000
H    -1.810000000    -0.617000000    -7.395000000
O     4.976000000    -0.966000000    -3.079000000
H     4.678000000    -0.065000000    -2.957000000
H     4.439000000    -1.480000000    -2.476000000
O     3.071000000     2.645000000     3.064000000
H     2.114000000     2.637000000     3.077000000
H     3.316000000     1.734000000     2.907000000
O     0.819000000    -0.588000000     4.309000000
H    -0.023000000    -0.681000000     3.863000000
H     0.618000000    -0.737000000     5.233000000
O     3.832000000    -2.801000000    -1.572000000
H     3.827000000    -2.647000000    -0.627000000
H     3.301000000    -3.589000000    -1.689000000
O     1.351000000     1.982000000     6.274000000
H     1.188000000     2.874000000     5.967000000
H     1.426000000     1.464000000     5.473000000
O    -0.228000000     5.011000000     1.831000000
H     0.214000000     5.100000000     0.987000000
H     0.287000000     4.356000000     2.302000000
O    -3.730000000     2.815000000     1.637000000
H    -3.228000000     3.619000000     1.503000000
H    -3.100000000     2.199000000     2.012000000
O    -2.872000000     5.463000000     0.254000000
H    -2.509000000     6.134000000    -0.323000000
H    -2.202000000     5.337000000     0.926000000
O    -3.809000000     3.063000000     6.814000000
H    -4.506000000     2.670000000     6.290000000
H    -3.095000000     3.208000000     6.193000000
O     0.882000000     1.536000000    -4.065000000
H     1.053000000     1.412000000    -4.998000000
H     0.086000000     1.032000000    -3.897000000
O     3.451000000    -2.386000000     1.966000000
H     3.422000000    -3.323000000     1.772000000
H     4.237000000    -2.277000000     2.502000000
O    -0.214000000    -2.899000000     5.695000000
H     0.398000000    -2.970000000     4.963000000
H    -0.949000000    -2.396000000     5.345000000
O    -3.643000000     0.691000000    -1.464000000
H    -3.672000000     1.594000000    -1.149000000
H    -4.147000000     0.196000000    -0.818000000
O    -2.138000000    -6.847000000    -3.696000000
H    -1.730000000    -6.872000000    -4.561000000
H    -1.707000000    -6.119000000    -3.248000000
O    -6.434000000     3.054000000     0.515000000
H    -7.077000000     2.756000000     1.159000000
H    -5.590000000     2.784000000     0.876000000
O    -0.130000000    -6.051000000    -5.590000000
H     0.386000000    -6.282000000    -6.362000000
H     0.394000000    -5.388000000    -5.142000000
O     1.086000000    -4.748000000    -3.190000000
H     0.275000000    -4.241000000    -3.223000000
H     1.200000000    -4.958000000    -2.263000000
O    -2.336000000     4.435000000    -2.707000000
H    -2.025000000     5.296000000    -2.428000000
H    -1.817000000     3.814000000    -2.196000000
O     3.509000000    -4.418000000    -4.593000000
H     2.924000000    -4.488000000    -3.839000000
H     4.382000000    -4.577000000    -4.235000000
O    -2.855000000     5.910000000     3.275000000
H    -3.367000000     6.710000000     3.399000000
H    -2.167000000     6.160000000     2.658000000
O     1.489000000    -4.541000000    -0.606000000
H     1.109000000    -5.292000000    -0.149000000
H     1.174000000    -3.780000000    -0.119000000
O     4.697000000    -1.962000000    -5.725000000
H     4.956000000    -1.651000000    -4.858000000
H     4.461000000    -2.879000000    -5.590000000
O     1.186000000     5.724000000    -0.480000000
H     0.602000000     5.560000000    -1.221000000
H     1.924000000     6.203000000    -0.857000000
O    -1.820000000    -2.645000000    -7.340000000
H    -1.098000000    -2.454000000    -6.741000000
H    -1.525000000    -3.409000000    -7.835000000
O     3.272000000     4.480000000     0.845000000
H     2.362000000     4.776000000     0.824000000
H     3.432000000     4.259000000     1.762000000
O    -1.479000000     5.607000000     6.703000000
H    -1.529000000     5.023000000     5.947000000
H    -0.559000000     5.578000000     6.968000000
O    -2.508000000    -2.996000000     1.579000000
H    -1.676000000    -3.435000000     1.755000000
H    -2.286000000    -2.304000000     0.956000000
O    -3.681000000    -2.813000000    -1.490000000
H    -4.268000000    -3.567000000    -1.428000000
H    -4.108000000    -2.135000000    -0.967000000
O     1.514000000     4.223000000     4.689000000
H     1.032000000     5.027000000     4.886000000
H     0.918000000     3.714000000     4.141000000
O    -1.870000000    -4.405000000    -2.970000000
H    -2.218000000    -4.403000000    -3.861000000
H    -2.327000000    -3.686000000    -2.533000000
O    -2.115000000    -1.536000000     4.314000000
H    -1.955000000    -1.867000000     3.430000000
H    -3.005000000    -1.184000000     4.280000000
O    -4.502000000    -4.927000000     1.426000000
H    -3.738000000    -4.380000000     1.611000000
H    -5.251000000    -4.371000000     1.640000000
O    -4.753000000    -1.021000000     0.537000000
H    -4.715000000    -1.682000000     1.228000000
H    -5.606000000    -0.604000000     0.651000000
O     3.385000000     1.338000000    -3.349000000
H     3.448000000     2.225000000    -2.995000000
H     2.469000000     1.250000000    -3.613000000
O     4.410000000     3.950000000     5.242000000
H     5.119000000     3.447000000     4.841000000
H     3.660000000     3.808000000     4.664000000
O     5.898000000    -3.629000000    -3.440000000
H     5.653000000    -2.772000000    -3.090000000
H     6.787000000    -3.775000000    -3.118000000
O     5.489000000     0.422000000     0.125000000
H     4.590000000     0.749000000     0.143000000
H     5.664000000     0.151000000     1.027000000
O     0.031000000     3.040000000    -1.852000000
H     0.729000000     2.523000000    -1.451000000
H     0.019000000     2.759000000    -2.766000000
O    -3.451000000     0.823000000     4.957000000
H    -3.054000000     1.115000000     5.778000000
H    -2.853000000     1.135000000     4.278000000
O    -5.507000000     3.895000000     3.490000000
H    -4.775000000     3.289000000     3.375000000
H    -5.243000000     4.683000000     3.015000000
O     2.961000000     0.178000000     2.255000000
H     3.184000000    -0.742000000     2.110000000
H     2.007000000     0.183000000     2.331000000
O    -1.702000000     0.541000000    -3.494000000
H    -2.164000000     0.204000000    -4.262000000
H    -2.280000000     0.339000000    -2.759000000
O     0.938000000    -1.758000000    -7.060000000
H     1.209000000    -1.052000000    -6.473000000
H     1.756000000    -2.187000000    -7.312000000
O     1.220000000     0.871000000    -6.691000000
H     1.955000000     0.966000000    -7.297000000
H     0.807000000     1.734000000    -6.678000000
O    -0.265000000    -4.009000000     2.878000000
H    -0.470000000    -4.902000000     3.155000000
H     0.666000000    -3.904000000     3.076000000
O     3.323000000     3.660000000    -1.876000000
H     3.347000000     3.820000000    -0.932000000
H     2.758000000     4.351000000    -2.221000000
