161
-3000.74755
C     1.095000000    -0.805000000     0.604000000
H     2.012000000    -1.241000000     0.993000000
C     1.056000000     0.550000000     0.377000000
H     1.852000000     1.206000000     0.720000000
C     0.028000000     1.188000000    -0.294000000
C     0.031000000     2.680000000    -0.430000000
H     0.989000000     3.202000000    -0.440000000
H    -0.373000000     3.142000000    -1.333000000
H    -0.452000000     3.146000000     0.431000000
C    -1.056000000     0.439000000    -0.646000000
H    -1.994000000     0.880000000    -0.975000000
C    -1.076000000    -0.930000000    -0.391000000
H    -1.971000000    -1.445000000    -0.731000000
C     0.025000000    -1.601000000     0.231000000
C     0.034000000    -3.068000000     0.479000000
O    -1.010000000    -3.721000000     0.256000000
O     0.816000000    -3.614000000     1.155000000
O    -1.762000000    -7.587000000     1.140000000
H    -1.454000000    -7.035000000     0.421000000
H    -2.511000000    -8.058000000     0.776000000
O     5.402000000    -3.015000000     3.393000000
H     5.879000000    -2.305000000     2.964000000
H     4.522000000    -2.973000000     3.019000000
O     0.147000000     3.891000000     3.121000000
H     0.641000000     4.659000000     2.835000000
H    -0.210000000     4.140000000     3.974000000
O     5.018000000    -6.652000000     2.057000000
H     4.207000000    -6.322000000     1.672000000
H     5.619000000    -5.908000000     2.023000000
O     4.188000000    -3.032000000    -1.205000000
H     3.573000000    -2.665000000    -1.840000000
H     4.660000000    -2.273000000    -0.863000000
O     0.507000000    -2.903000000     5.077000000
H     0.045000000    -2.993000000     5.910000000
H     0.391000000    -1.984000000     4.836000000
O    -1.860000000     0.501000000     5.123000000
H    -1.347000000     0.725000000     4.346000000
H    -1.416000000     0.951000000     5.841000000
O    -4.251000000     3.933000000    -2.854000000
H    -4.372000000     4.129000000    -1.925000000
H    -4.313000000     4.784000000    -3.289000000
O    -1.993000000     7.115000000    -1.017000000
H    -2.067000000     6.654000000    -0.182000000
H    -2.319000000     7.996000000    -0.835000000
O     0.826000000    -0.477000000     4.246000000
H     1.378000000     0.246000000     4.544000000
H     0.349000000    -0.121000000     3.497000000
O    -5.189000000    -4.912000000    -0.856000000
H    -6.076000000    -5.047000000    -1.188000000
H    -5.305000000    -4.750000000     0.080000000
O     2.387000000     1.715000000     4.206000000
H     2.642000000     2.176000000     5.006000000
H     2.406000000     2.389000000     3.526000000
O    -4.944000000     2.074000000     0.577000000
H    -4.335000000     1.709000000     1.218000000
H    -5.734000000     1.541000000     0.666000000
O    -1.186000000    -4.794000000     3.041000000
H    -0.353000000    -4.327000000     3.101000000
H    -1.588000000    -4.466000000     2.237000000
O    -1.091000000     4.858000000    -3.780000000
H    -1.484000000     4.085000000    -4.185000000
H    -1.775000000     5.526000000    -3.824000000
O     1.192000000    -5.465000000     5.060000000
H     0.858000000    -4.569000000     5.016000000
H     1.289000000    -5.729000000     4.145000000
O     4.173000000     0.770000000     0.013000000
H     3.934000000     1.462000000    -0.603000000
H     4.892000000     0.305000000    -0.416000000
O     2.787000000    -5.650000000     0.349000000
H     2.254000000    -4.919000000     0.662000000
H     2.552000000    -5.741000000    -0.574000000
O    -0.168000000     7.207000000    -3.620000000
H    -0.032000000     7.291000000    -2.676000000
H    -0.210000000     6.263000000    -3.772000000
O    -4.441000000     4.572000000    -0.024000000
H    -3.520000000     4.564000000     0.235000000
H    -4.718000000     3.658000000     0.048000000
O    -4.628000000    -5.395000000     2.657000000
H    -5.492000000    -4.983000000     2.641000000
H    -4.022000000    -4.690000000     2.428000000
O    -1.612000000    -3.751000000    -2.768000000
H    -1.836000000    -3.813000000    -1.839000000
H    -2.427000000    -3.959000000    -3.224000000
O     1.580000000     0.947000000    -3.347000000
H     1.991000000     1.783000000    -3.567000000
H     1.772000000     0.823000000    -2.417000000
O     3.607000000     3.577000000     2.169000000
H     3.227000000     3.523000000     1.292000000
H     4.189000000     4.336000000     2.131000000
O    -3.159000000    -3.233000000     1.625000000
H    -2.358000000    -3.408000000     1.130000000
H    -3.104000000    -2.304000000     1.848000000
O     4.857000000     0.842000000     2.950000000
H     4.668000000     1.421000000     2.212000000
H     4.006000000     0.693000000     3.363000000
O    -1.373000000    -1.608000000    -4.321000000
H    -1.593000000    -0.899000000    -3.717000000
H    -1.464000000    -2.405000000    -3.799000000
O     0.721000000     6.348000000     1.791000000
H     0.738000000     7.249000000     1.470000000
H     1.459000000     5.923000000     1.353000000
O     3.600000000     2.892000000    -1.742000000
H     3.874000000     2.608000000    -2.615000000
H     2.740000000     3.290000000    -1.878000000
O     4.472000000    -4.675000000     5.149000000
H     5.087000000    -4.147000000     4.640000000
H     3.614000000    -4.464000000     4.782000000
O     1.438000000     4.726000000    -2.442000000
H     0.498000000     4.803000000    -2.606000000
H     1.848000000     5.071000000    -3.234000000
O    -0.227000000    -6.096000000    -0.728000000
H    -0.466000000    -5.343000000    -0.188000000
H     0.649000000    -5.889000000    -1.054000000
O    -1.072000000    -7.682000000    -2.958000000
H    -0.926000000    -7.231000000    -2.126000000
H    -1.936000000    -7.386000000    -3.242000000
O    -3.763000000    -7.078000000    -2.380000000
H    -4.223000000    -6.331000000    -1.997000000
H    -3.960000000    -7.807000000    -1.793000000
O     1.411000000    -6.839000000     2.469000000
H     0.491000000    -6.812000000     2.206000000
H     1.887000000    -6.502000000     1.711000000
O     2.317000000    -6.266000000    -2.163000000
H     2.133000000    -7.057000000    -2.669000000
H     2.734000000    -5.673000000    -2.788000000
O    -6.126000000    -0.848000000    -2.812000000
H    -5.790000000    -0.054000000    -3.226000000
H    -6.328000000    -0.583000000    -1.914000000
O    -0.429000000    -5.566000000    -4.694000000
H    -0.581000000    -6.482000000    -4.465000000
H    -0.905000000    -5.070000000    -4.028000000
O    -3.244000000     6.798000000    -3.368000000
H    -2.857000000     6.934000000    -2.503000000
H    -4.180000000     6.949000000    -3.238000000
O    -2.895000000    -0.491000000     2.034000000
H    -3.421000000    -0.164000000     2.764000000
H    -2.393000000     0.270000000     1.742000000
O     2.563000000    -3.502000000     3.163000000
H     1.972000000    -3.533000000     2.411000000
H     2.017000000    -3.183000000     3.882000000
O     2.678000000     5.467000000     0.166000000
H     2.244000000     5.225000000    -0.652000000
H     3.316000000     6.133000000    -0.090000000
O    -0.640000000     1.347000000     2.729000000
H    -0.503000000     2.251000000     3.011000000
H    -0.181000000     1.285000000     1.892000000
O    -5.852000000     1.888000000    -3.827000000
H    -5.767000000     2.185000000    -4.733000000
H    -5.355000000     2.528000000    -3.317000000
O    -2.019000000     5.915000000     1.533000000
H    -2.285000000     6.153000000     2.421000000
H    -1.081000000     5.739000000     1.602000000
O    -2.123000000    -7.451000000     3.829000000
H    -1.934000000    -6.517000000     3.913000000
H    -2.218000000    -7.593000000     2.887000000
O    -5.490000000    -1.635000000     0.067000000
H    -5.242000000    -1.342000000     0.944000000
H    -5.035000000    -2.469000000    -0.045000000
O     1.562000000     3.405000000    -5.356000000
H     1.908000000     2.967000000    -6.134000000
H     0.683000000     3.687000000    -5.611000000
