161
-3048.80288
C     0.890000000     0.426000000     1.031000000
H     1.668000000     0.787000000     1.699000000
C     0.513000000     1.242000000     0.006000000
H     0.787000000     2.293000000    -0.043000000
C    -0.320000000     0.693000000    -0.951000000
C    -0.600000000     1.475000000    -2.223000000
H    -1.478000000     2.076000000    -1.978000000
H     0.134000000     2.251000000    -2.450000000
H    -0.632000000     0.742000000    -3.032000000
C    -0.894000000    -0.587000000    -0.778000000
H    -1.485000000    -1.041000000    -1.569000000
C    -0.555000000    -1.380000000     0.346000000
H    -0.902000000    -2.405000000     0.453000000
C     0.392000000    -0.857000000     1.258000000
C     0.824000000    -1.722000000     2.406000000
O     0.491000000    -2.869000000     2.381000000
O     1.174000000    -1.131000000     3.447000000
O    -2.195000000     0.966000000     1.843000000
H    -1.470000000     0.470000000     1.463000000
H    -2.563000000     0.382000000     2.507000000
O     6.084000000    -2.197000000     4.292000000
H     5.409000000    -1.543000000     4.110000000
H     5.685000000    -3.029000000     4.038000000
O    -0.463000000    -2.449000000    -4.399000000
H    -1.390000000    -2.240000000    -4.289000000
H    -0.358000000    -2.586000000    -5.340000000
O    -1.470000000     5.414000000    -1.587000000
H    -2.340000000     5.051000000    -1.752000000
H    -1.248000000     5.114000000    -0.705000000
O     5.200000000     1.787000000     2.486000000
H     4.872000000     0.998000000     2.918000000
H     4.911000000     2.505000000     3.049000000
O     2.837000000     2.169000000    -4.703000000
H     2.574000000     1.302000000    -4.395000000
H     2.465000000     2.774000000    -4.062000000
O    -1.593000000    -0.202000000     6.933000000
H    -1.051000000     0.374000000     6.395000000
H    -1.727000000    -0.980000000     6.391000000
O     1.087000000     5.395000000    -2.744000000
H     1.800000000     5.284000000    -2.115000000
H     0.293000000     5.383000000    -2.211000000
O     0.713000000     1.887000000     7.735000000
H     1.030000000     2.757000000     7.494000000
H     0.508000000     1.466000000     6.900000000
O    -3.895000000     4.196000000    -3.268000000
H    -4.018000000     3.332000000    -2.875000000
H    -4.083000000     4.066000000    -4.197000000
O    -3.454000000    -0.952000000     3.464000000
H    -4.048000000    -1.544000000     3.003000000
H    -3.763000000    -0.960000000     4.370000000
O     1.081000000     2.251000000    -6.616000000
H     0.747000000     3.102000000    -6.333000000
H     1.845000000     2.097000000    -6.061000000
O    -6.653000000     0.355000000    -1.805000000
H    -6.194000000    -0.128000000    -1.117000000
H    -5.971000000     0.879000000    -2.225000000
O     0.435000000     0.961000000     5.319000000
H     0.615000000     1.860000000     5.042000000
H     0.601000000     0.433000000     4.538000000
O    -0.929000000    -5.152000000     2.619000000
H    -0.351000000    -4.403000000     2.472000000
H    -1.693000000    -4.976000000     2.069000000
O     1.012000000     4.912000000     0.504000000
H     1.181000000     5.834000000     0.696000000
H     1.742000000     4.646000000    -0.056000000
O     6.295000000     1.838000000    -0.154000000
H     5.870000000     1.874000000     0.703000000
H     7.180000000     1.523000000     0.030000000
O     0.204000000     3.756000000     5.333000000
H    -0.748000000     3.771000000     5.430000000
H     0.348000000     3.695000000     4.388000000
O     2.544000000    -4.749000000     3.923000000
H     2.672000000    -4.537000000     4.848000000
H     2.079000000    -3.993000000     3.565000000
O     0.314000000     4.305000000    -5.117000000
H    -0.399000000     4.820000000    -5.497000000
H     0.664000000     4.860000000    -4.420000000
O     3.639000000    -0.335000000     6.907000000
H     4.565000000    -0.359000000     6.665000000
H     3.447000000     0.595000000     7.027000000
O     1.155000000    -1.149000000     8.662000000
H     1.587000000    -0.298000000     8.598000000
H     0.802000000    -1.306000000     7.787000000
O     0.464000000     3.195000000     2.569000000
H     0.804000000     3.902000000     2.021000000
H     0.297000000     2.477000000     1.958000000
O     3.860000000    -0.489000000     3.130000000
H     3.927000000    -0.775000000     2.219000000
H     2.982000000    -0.758000000     3.401000000
O    -2.145000000     3.423000000     0.526000000
H    -1.802000000     3.800000000     1.336000000
H    -2.165000000     2.480000000     0.691000000
O     2.841000000    -7.454000000     2.576000000
H     2.433000000    -7.360000000     1.716000000
H     2.417000000    -6.786000000     3.116000000
O    -3.226000000    -2.741000000    -5.094000000
H    -3.404000000    -2.941000000    -6.012000000
H    -4.020000000    -3.009000000    -4.632000000
O    -3.032000000    -4.543000000     5.867000000
H    -2.393000000    -4.000000000     5.406000000
H    -2.868000000    -4.370000000     6.795000000
O    -1.148000000     0.585000000    -6.834000000
H    -1.857000000     1.134000000    -7.169000000
H    -0.452000000     1.203000000    -6.611000000
O    -3.516000000     0.443000000    -5.248000000
H    -2.598000000     0.171000000    -5.234000000
H    -3.960000000    -0.239000000    -5.752000000
O    -0.834000000    -4.565000000    -2.241000000
H    -0.975000000    -5.413000000    -2.663000000
H    -1.066000000    -3.922000000    -2.912000000
O     4.166000000    -1.189000000     0.451000000
H     3.956000000    -2.051000000     0.091000000
H     4.069000000    -0.590000000    -0.290000000
O     3.369000000     5.108000000    -1.518000000
H     3.782000000     5.002000000    -0.661000000
H     3.928000000     5.734000000    -1.978000000
O     5.230000000    -5.157000000     3.313000000
H     5.607000000    -5.393000000     4.161000000
H     4.285000000    -5.246000000     3.438000000
O    -4.350000000     1.590000000    -2.664000000
H    -4.037000000     1.224000000    -3.491000000
H    -4.005000000     0.999000000    -1.994000000
O     2.966000000    -0.444000000    -3.600000000
H     3.721000000    -0.444000000    -3.012000000
H     2.460000000    -1.214000000    -3.340000000
O    -4.339000000    -3.160000000     2.170000000
H    -5.257000000    -3.430000000     2.185000000
H    -3.853000000    -3.970000000     2.016000000
O     3.381000000    -4.146000000     6.914000000
H     2.648000000    -3.596000000     6.635000000
H     3.763000000    -3.676000000     7.656000000
O     1.357000000    -4.469000000     0.117000000
H     1.075000000    -3.980000000     0.890000000
H     0.654000000    -4.338000000    -0.519000000
O     3.533000000    -3.339000000    -1.060000000
H     3.007000000    -3.078000000    -1.816000000
H     2.935000000    -3.854000000    -0.518000000
O    -5.637000000    -2.005000000    -0.158000000
H    -5.740000000    -2.063000000     0.792000000
H    -5.868000000    -2.877000000    -0.477000000
O    -0.811000000    -2.021000000    -7.304000000
H    -1.613000000    -2.532000000    -7.410000000
H    -1.105000000    -1.110000000    -7.312000000
O    -2.730000000    -5.440000000     0.271000000
H    -2.580000000    -6.159000000    -0.343000000
H    -2.349000000    -4.675000000    -0.159000000
O     3.553000000     5.897000000    -4.645000000
H     2.827000000     5.635000000    -4.079000000
H     3.996000000     6.593000000    -4.159000000
O    -1.317000000    -2.222000000     4.842000000
H    -0.561000000    -2.585000000     4.380000000
H    -1.677000000    -1.572000000     4.238000000
O     1.670000000    -1.705000000     5.927000000
H     1.365000000    -1.520000000     5.039000000
H     2.387000000    -1.087000000     6.067000000
O    -4.127000000     0.170000000    -0.209000000
H    -3.722000000     0.459000000     0.609000000
H    -4.402000000    -0.730000000    -0.035000000
O     2.267000000    -3.064000000    -3.375000000
H     2.572000000    -3.376000000    -4.227000000
H     1.341000000    -3.302000000    -3.350000000
