161
-3013.39833
C     1.124000000     0.896000000     0.119000000
H     1.861000000     1.681000000     0.265000000
C     0.206000000     0.992000000    -0.829000000
H     0.238000000     1.913000000    -1.407000000
C    -0.821000000     0.116000000    -0.906000000
C    -1.859000000     0.227000000    -1.968000000
H    -1.435000000     0.381000000    -2.962000000
H    -2.368000000    -0.737000000    -1.903000000
H    -2.440000000     1.106000000    -1.681000000
C    -0.885000000    -1.026000000    -0.026000000
H    -1.687000000    -1.752000000    -0.137000000
C     0.004000000    -1.094000000     1.036000000
H    -0.073000000    -1.877000000     1.786000000
C     1.066000000    -0.160000000     1.069000000
C     2.096000000    -0.198000000     2.225000000
O     2.247000000    -1.293000000     2.873000000
O     2.732000000     0.821000000     2.440000000
O     0.982000000    -0.497000000    -5.242000000
H     1.013000000    -1.039000000    -4.454000000
H     0.062000000    -0.514000000    -5.508000000
O     6.352000000     2.290000000     4.095000000
H     6.543000000     1.711000000     4.833000000
H     5.405000000     2.422000000     4.132000000
O    -5.585000000     2.882000000    -1.489000000
H    -5.477000000     3.562000000    -0.824000000
H    -6.066000000     2.185000000    -1.043000000
O     2.895000000    -1.894000000     8.246000000
H     2.323000000    -2.640000000     8.428000000
H     2.728000000    -1.683000000     7.327000000
O    -4.193000000    -0.165000000     4.116000000
H    -3.248000000    -0.060000000     4.005000000
H    -4.497000000     0.697000000     4.403000000
O     2.255000000     4.293000000    -4.336000000
H     2.263000000     4.881000000    -3.581000000
H     2.623000000     3.473000000    -4.006000000
O    -5.762000000    -1.762000000     2.271000000
H    -6.551000000    -1.838000000     2.809000000
H    -5.173000000    -1.212000000     2.787000000
O    -4.563000000     0.294000000     0.806000000
H    -5.277000000     0.451000000     0.188000000
H    -4.640000000    -0.633000000     1.031000000
O    -1.742000000     3.987000000    -4.099000000
H    -1.473000000     4.422000000    -3.291000000
H    -1.072000000     3.320000000    -4.248000000
O    -1.175000000     0.139000000     4.421000000
H    -1.218000000     1.077000000     4.605000000
H    -0.501000000    -0.191000000     5.015000000
O    -0.185000000    -6.834000000     0.069000000
H    -0.587000000    -7.702000000     0.111000000
H    -0.875000000    -6.236000000     0.358000000
O    -2.692000000     5.713000000    -1.512000000
H    -3.244000000     6.445000000    -1.787000000
H    -2.998000000     5.500000000    -0.630000000
O    -6.854000000    -3.427000000    -0.519000000
H    -6.240000000    -4.159000000    -0.580000000
H    -6.303000000    -2.669000000    -0.325000000
O     3.762000000     2.795000000     3.860000000
H     3.329000000     2.182000000     3.266000000
H     3.060000000     3.119000000     4.424000000
O     1.291000000    -2.284000000    -3.071000000
H     1.571000000    -3.194000000    -3.171000000
H     0.544000000    -2.327000000    -2.474000000
O    -2.305000000    -2.898000000     3.629000000
H    -1.810000000    -2.080000000     3.663000000
H    -2.169000000    -3.224000000     2.740000000
O     4.675000000     3.950000000    -2.033000000
H     4.624000000     3.052000000    -2.360000000
H     5.013000000     3.862000000    -1.142000000
O    -4.023000000     3.764000000     2.646000000
H    -3.252000000     4.232000000     2.965000000
H    -3.678000000     2.940000000     2.302000000
O     3.766000000    -0.291000000     5.517000000
H     3.517000000    -0.216000000     4.596000000
H     3.219000000     0.353000000     5.966000000
O     1.698000000     3.525000000     5.286000000
H     0.747000000     3.571000000     5.183000000
H     2.002000000     4.413000000     5.101000000
O    -4.395000000    -0.756000000    -3.995000000
H    -3.517000000    -0.385000000    -4.084000000
H    -4.969000000     0.006000000    -3.908000000
O     5.212000000    -0.038000000     1.892000000
H     5.741000000     0.730000000     1.677000000
H     4.371000000     0.323000000     2.173000000
O     4.863000000    -3.179000000     5.336000000
H     4.525000000    -3.702000000     4.609000000
H     4.320000000    -2.391000000     5.336000000
O     4.154000000     1.976000000    -4.008000000
H     4.242000000     1.102000000    -3.629000000
H     3.969000000     1.818000000    -4.934000000
O     6.058000000     0.858000000     6.642000000
H     5.157000000     0.635000000     6.406000000
H     6.277000000     0.252000000     7.349000000
O    -4.285000000    -2.614000000    -6.010000000
H    -4.764000000    -2.277000000    -6.767000000
H    -4.723000000    -2.221000000    -5.255000000
O    -1.601000000    -3.361000000    -4.107000000
H    -1.480000000    -3.840000000    -4.927000000
H    -0.754000000    -3.422000000    -3.666000000
O    -3.693000000    -2.860000000    -2.288000000
H    -4.231000000    -2.076000000    -2.400000000
H    -3.295000000    -3.001000000    -3.147000000
O     3.831000000    -3.568000000     2.642000000
H     3.824000000    -3.496000000     1.688000000
H     3.364000000    -2.790000000     2.945000000
O     5.348000000    -3.048000000    -0.616000000
H     4.937000000    -3.239000000    -1.459000000
H     4.728000000    -2.469000000    -0.173000000
O     0.607000000    -0.807000000     6.565000000
H     0.880000000     0.089000000     6.763000000
H    -0.201000000    -0.926000000     7.064000000
O     0.565000000    -5.104000000     2.778000000
H    -0.165000000    -5.478000000     3.272000000
H     0.883000000    -4.387000000     3.326000000
O     1.916000000    -4.617000000     6.383000000
H     1.487000000    -3.982000000     5.810000000
H     1.406000000    -4.592000000     7.193000000
O     2.550000000    -6.370000000     1.179000000
H     2.207000000    -6.728000000     0.360000000
H     1.823000000    -5.863000000     1.542000000
O     2.347000000    -3.021000000    -0.123000000
H     1.594000000    -2.481000000     0.118000000
H     1.982000000    -3.895000000    -0.259000000
O    -4.742000000    -4.240000000     1.346000000
H    -5.296000000    -4.997000000     1.536000000
H    -5.149000000    -3.519000000     1.825000000
O     6.728000000    -2.398000000     2.065000000
H     6.137000000    -1.723000000     2.399000000
H     6.561000000    -2.417000000     1.123000000
O    -1.847000000    -0.755000000    -5.556000000
H    -2.613000000    -0.831000000    -6.125000000
H    -1.739000000    -1.629000000    -5.182000000
O    -2.820000000    -4.779000000    -0.512000000
H    -3.316000000    -4.753000000     0.306000000
H    -3.305000000    -4.205000000    -1.105000000
O     0.307000000     2.322000000    -4.461000000
H     0.689000000     1.485000000    -4.725000000
H     1.043000000     2.933000000    -4.465000000
O     2.425000000    -0.009000000    -2.452000000
H     2.208000000    -0.932000000    -2.582000000
H     1.669000000     0.351000000    -1.988000000
O    -0.413000000    -4.123000000    -1.711000000
H    -1.333000000    -4.062000000    -1.451000000
H    -0.195000000    -5.049000000    -1.602000000
O    -4.416000000     3.168000000    -4.281000000
H    -4.579000000     3.031000000    -3.348000000
H    -3.469000000     3.292000000    -4.343000000
O    -2.647000000     1.844000000     1.661000000
H    -3.256000000     1.196000000     1.307000000
H    -1.780000000     1.466000000     1.511000000
O     2.032000000     1.562000000     7.060000000
H     2.529000000     2.049000000     7.717000000
H     1.642000000     2.237000000     6.506000000
O     0.780000000    -2.596000000     4.643000000
H     0.534000000    -1.881000000     5.231000000
H     1.337000000    -2.182000000     3.984000000
O     4.944000000     0.212000000    -1.351000000
H     4.626000000     0.230000000    -0.448000000
H     4.151000000     0.164000000    -1.883000000
O    -1.580000000    -5.412000000     4.858000000
H    -1.469000000    -4.573000000     5.305000000
H    -2.027000000    -5.966000000     5.497000000
