161
-3038.39505
C     0.913000000     0.639000000     0.968000000
H     1.653000000     1.135000000     1.590000000
C     0.452000000     1.161000000    -0.214000000
H     0.891000000     2.086000000    -0.578000000
C    -0.420000000     0.478000000    -1.070000000
C    -0.799000000     1.050000000    -2.407000000
H    -0.456000000     2.087000000    -2.451000000
H    -0.190000000     0.546000000    -3.161000000
H    -1.842000000     0.962000000    -2.717000000
C    -0.880000000    -0.750000000    -0.651000000
H    -1.503000000    -1.354000000    -1.306000000
C    -0.458000000    -1.285000000     0.527000000
H    -0.886000000    -2.237000000     0.829000000
C     0.400000000    -0.646000000     1.407000000
C     0.899000000    -1.181000000     2.717000000
O     0.748000000    -2.339000000     3.028000000
O     1.486000000    -0.355000000     3.488000000
O     5.255000000    -3.943000000     1.209000000
H     4.613000000    -4.540000000     1.594000000
H     4.770000000    -3.130000000     1.065000000
O    -3.709000000    -3.804000000    -3.403000000
H    -2.988000000    -3.914000000    -4.023000000
H    -3.359000000    -4.118000000    -2.570000000
O     4.655000000    -3.192000000     5.145000000
H     4.646000000    -3.931000000     5.753000000
H     5.446000000    -3.322000000     4.622000000
O    -3.173000000    -0.132000000     2.518000000
H    -2.379000000    -0.667000000     2.545000000
H    -3.115000000     0.424000000     3.295000000
O     3.847000000    -0.217000000    -0.990000000
H     3.074000000    -0.447000000    -1.506000000
H     3.667000000     0.665000000    -0.667000000
O     1.094000000     6.133000000    -4.680000000
H     1.031000000     7.061000000    -4.905000000
H     0.373000000     5.721000000    -5.157000000
O     4.010000000    -1.716000000     1.407000000
H     3.815000000    -1.285000000     0.575000000
H     3.981000000    -1.012000000     2.054000000
O    -6.566000000     3.481000000    -2.445000000
H    -5.638000000     3.318000000    -2.611000000
H    -6.897000000     3.841000000    -3.268000000
O     1.644000000    -2.265000000     7.830000000
H     1.509000000    -3.084000000     7.352000000
H     1.995000000    -1.661000000     7.176000000
O     6.455000000     1.075000000     0.668000000
H     6.440000000     1.070000000     1.625000000
H     5.667000000     0.594000000     0.414000000
O    -1.554000000     5.070000000    -2.572000000
H    -1.369000000     4.400000000    -3.230000000
H    -1.862000000     5.823000000    -3.077000000
O     0.497000000     3.973000000     4.450000000
H    -0.167000000     3.318000000     4.664000000
H     1.261000000     3.461000000     4.182000000
O     2.283000000     2.088000000     4.008000000
H     2.622000000     2.004000000     4.899000000
H     2.003000000     1.203000000     3.773000000
O     2.865000000    -1.193000000     5.616000000
H     2.336000000    -1.038000000     4.833000000
H     3.580000000    -1.753000000     5.315000000
O    -2.566000000     2.891000000    -4.767000000
H    -2.219000000     2.138000000    -5.246000000
H    -2.360000000     3.643000000    -5.322000000
O    -1.429000000    -3.906000000     3.757000000
H    -0.582000000    -3.490000000     3.594000000
H    -1.256000000    -4.538000000     4.454000000
O     3.705000000    -5.718000000     2.554000000
H     3.722000000    -6.036000000     3.456000000
H     3.520000000    -6.496000000     2.028000000
O    -1.749000000     2.472000000     5.428000000
H    -1.777000000     2.274000000     6.364000000
H    -1.671000000     1.617000000     5.004000000
O    -0.450000000    -5.488000000    -0.118000000
H     0.160000000    -5.027000000     0.457000000
H    -0.274000000    -6.416000000     0.040000000
O    -0.482000000    -5.949000000     5.753000000
H     0.340000000    -5.459000000     5.767000000
H    -0.771000000    -5.957000000     6.666000000
O     2.120000000     2.481000000    -6.691000000
H     2.786000000     2.118000000    -6.107000000
H     1.937000000     1.776000000    -7.312000000
O    -5.771000000    -0.870000000    -1.113000000
H    -5.245000000    -1.163000000    -0.368000000
H    -5.133000000    -0.720000000    -1.811000000
O     3.092000000     6.088000000     2.485000000
H     3.197000000     6.618000000     1.695000000
H     2.739000000     5.256000000     2.170000000
O    -1.094000000    -0.072000000     4.602000000
H    -0.171000000     0.095000000     4.410000000
H    -1.113000000    -0.976000000     4.915000000
O     1.396000000    -4.432000000     1.307000000
H     2.155000000    -4.845000000     1.718000000
H     1.237000000    -3.647000000     1.832000000
O     1.565000000    -3.819000000     5.331000000
H     1.402000000    -3.211000000     4.610000000
H     2.453000000    -3.612000000     5.623000000
O    -2.954000000    -4.643000000    -0.951000000
H    -2.107000000    -5.014000000    -0.705000000
H    -3.195000000    -4.084000000    -0.213000000
O     2.182000000     4.098000000     0.767000000
H     2.075000000     4.547000000    -0.072000000
H     3.061000000     3.722000000     0.728000000
O    -1.983000000     5.155000000     3.051000000
H    -1.673000000     5.005000000     2.158000000
H    -1.310000000     4.762000000     3.607000000
O    -1.421000000     0.992000000    -6.196000000
H    -0.583000000     1.231000000    -6.592000000
H    -1.571000000     0.090000000    -6.480000000
O     1.721000000    -1.086000000    -2.433000000
H     0.865000000    -0.721000000    -2.209000000
H     1.697000000    -1.980000000    -2.091000000
O     3.483000000     1.327000000     6.501000000
H     3.220000000     0.408000000     6.450000000
H     3.508000000     1.517000000     7.439000000
O    -0.546000000    -6.486000000    -2.752000000
H     0.403000000    -6.573000000    -2.656000000
H    -0.843000000    -6.160000000    -1.902000000
O     4.688000000     0.483000000     2.783000000
H     5.037000000     0.253000000     3.643000000
H     4.182000000     1.282000000     2.936000000
O     4.161000000     2.990000000    -2.712000000
H     3.938000000     3.718000000    -3.292000000
H     4.307000000     3.399000000    -1.859000000
O     1.442000000    -3.838000000    -1.670000000
H     1.200000000    -3.971000000    -0.754000000
H     1.709000000    -4.705000000    -1.976000000
O    -3.776000000     3.590000000    -2.287000000
H    -3.488000000     3.426000000    -3.185000000
H    -3.107000000     4.169000000    -1.922000000
O     3.710000000     0.636000000    -4.369000000
H     2.886000000     0.461000000    -3.914000000
H     4.055000000     1.422000000    -3.945000000
O     2.148000000     5.451000000    -1.536000000
H     1.728000000     6.310000000    -1.508000000
H     1.937000000     5.108000000    -2.404000000
O    -1.839000000    -1.860000000    -7.269000000
H    -1.253000000    -2.259000000    -6.626000000
H    -2.299000000    -2.599000000    -7.666000000
O    -3.995000000    -0.717000000    -3.124000000
H    -3.821000000    -1.636000000    -3.325000000
H    -3.877000000    -0.263000000    -3.959000000
O    -3.468000000    -2.792000000     4.843000000
H    -2.590000000    -3.162000000     4.751000000
H    -4.052000000    -3.477000000     4.516000000
O    -1.073000000     3.762000000     0.762000000
H    -1.074000000     2.824000000     0.567000000
H    -0.207000000     4.062000000     0.489000000
O    -1.478000000    -4.300000000    -4.706000000
H    -1.015000000    -4.818000000    -4.048000000
H    -0.785000000    -3.944000000    -5.263000000
O     4.794000000     3.403000000     0.670000000
H     5.156000000     4.180000000     1.095000000
H     5.445000000     2.718000000     0.827000000
O    -3.328000000    -4.321000000     1.964000000
H    -2.623000000    -4.336000000     2.611000000
H    -3.503000000    -5.244000000     1.779000000
O    -4.537000000    -2.158000000     0.974000000
H    -4.122000000    -1.396000000     1.377000000
H    -3.989000000    -2.897000000     1.237000000
O    -4.499000000     2.268000000     1.597000000
H    -3.758000000     1.683000000     1.437000000
H    -4.229000000     2.797000000     2.348000000
