161
-3051.37757
C     0.406000000     1.217000000     0.672000000
H     0.924000000     2.055000000     1.132000000
C     0.581000000     0.946000000    -0.672000000
H     1.202000000     1.609000000    -1.269000000
C     0.142000000    -0.277000000    -1.200000000
C     0.370000000    -0.514000000    -2.648000000
H     0.960000000    -1.425000000    -2.770000000
H    -0.548000000    -0.694000000    -3.212000000
H     0.906000000     0.309000000    -3.126000000
C    -0.563000000    -1.087000000    -0.410000000
H    -0.930000000    -2.007000000    -0.858000000
C    -0.782000000    -0.875000000     0.977000000
H    -1.311000000    -1.511000000     1.682000000
C    -0.299000000     0.338000000     1.519000000
C    -0.321000000     0.601000000     3.012000000
O    -0.735000000    -0.322000000     3.672000000
O     0.002000000     1.634000000     3.500000000
O     3.772000000     4.915000000    -2.320000000
H     3.168000000     5.289000000    -2.962000000
H     3.717000000     5.505000000    -1.569000000
O    -4.101000000    -2.306000000     2.768000000
H    -3.177000000    -2.411000000     2.994000000
H    -4.557000000    -2.319000000     3.610000000
O    -3.056000000    -1.444000000    -6.333000000
H    -2.609000000    -2.221000000    -5.996000000
H    -2.397000000    -1.003000000    -6.869000000
O     1.159000000    -5.923000000     3.513000000
H     0.683000000    -5.286000000     2.979000000
H     1.937000000    -5.452000000     3.812000000
O    -3.071000000    -0.800000000    -2.878000000
H    -2.888000000    -1.513000000    -2.266000000
H    -2.671000000    -0.029000000    -2.475000000
O     4.240000000    -0.073000000     2.498000000
H     4.709000000     0.393000000     3.190000000
H     3.936000000     0.617000000     1.908000000
O     1.701000000    -0.307000000     5.242000000
H     2.536000000    -0.031000000     4.866000000
H     1.042000000     0.167000000     4.735000000
O     1.873000000     4.466000000     0.203000000
H     1.078000000     3.993000000     0.448000000
H     1.557000000     5.270000000    -0.210000000
O    -3.905000000     1.690000000    -1.087000000
H    -3.912000000     2.179000000    -0.264000000
H    -4.813000000     1.414000000    -1.210000000
O    -1.672000000     4.835000000     6.238000000
H    -1.393000000     5.315000000     7.018000000
H    -2.474000000     4.387000000     6.507000000
O     1.784000000    -3.647000000     5.381000000
H     0.950000000    -3.778000000     5.832000000
H     1.689000000    -2.800000000     4.944000000
O     4.253000000     1.017000000    -5.943000000
H     3.822000000     1.559000000    -5.282000000
H     4.197000000     1.531000000    -6.748000000
O    -1.698000000    -4.104000000    -5.636000000
H    -1.535000000    -4.307000000    -4.715000000
H    -0.827000000    -4.061000000    -6.030000000
O    -2.243000000     5.887000000     3.826000000
H    -2.759000000     6.680000000     3.969000000
H    -2.055000000     5.561000000     4.706000000
O    -3.167000000     2.643000000     3.904000000
H    -3.724000000     1.867000000     3.962000000
H    -2.306000000     2.341000000     4.193000000
O    -5.225000000    -4.951000000     2.115000000
H    -4.766000000    -4.111000000     2.135000000
H    -6.070000000    -4.752000000     1.712000000
O     4.846000000    -2.131000000    -3.197000000
H     5.228000000    -2.760000000    -2.585000000
H     4.124000000    -1.731000000    -2.712000000
O    -2.486000000     1.856000000     7.411000000
H    -2.262000000     1.558000000     6.529000000
H    -1.924000000     1.339000000     7.988000000
O    -2.397000000    -5.302000000     1.963000000
H    -3.327000000    -5.443000000     2.138000000
H    -2.112000000    -4.698000000     2.648000000
O     2.749000000     4.402000000     6.958000000
H     2.261000000     4.388000000     6.134000000
H     2.262000000     3.812000000     7.534000000
O    -1.249000000     0.108000000    -7.764000000
H    -0.301000000     0.238000000    -7.733000000
H    -1.521000000     0.522000000    -8.584000000
O     3.351000000    -2.433000000    -5.408000000
H     3.758000000    -1.676000000    -5.829000000
H     3.827000000    -2.534000000    -4.584000000
O    -1.281000000    -3.004000000     3.359000000
H    -0.895000000    -2.129000000     3.369000000
H    -1.589000000    -3.140000000     4.256000000
O     1.633000000     2.614000000    -6.816000000
H     1.229000000     2.882000000    -5.991000000
H     2.264000000     3.307000000    -7.011000000
O     3.126000000    -1.618000000    -1.112000000
H     3.278000000    -0.675000000    -1.170000000
H     3.185000000    -1.813000000    -0.177000000
O     2.325000000    -4.374000000    -2.015000000
H     2.850000000    -3.602000000    -1.802000000
H     2.450000000    -4.962000000    -1.271000000
O    -5.228000000     0.343000000     2.863000000
H    -6.015000000     0.289000000     2.322000000
H    -5.079000000    -0.555000000     3.159000000
O     4.228000000     0.745000000    -1.309000000
H     4.098000000     1.318000000    -0.554000000
H     5.174000000     0.755000000    -1.458000000
O     0.890000000    -3.947000000     1.611000000
H     1.479000000    -3.215000000     1.427000000
H     0.044000000    -3.535000000     1.788000000
O    -1.582000000     4.882000000    -0.397000000
H    -1.189000000     5.755000000    -0.383000000
H    -1.197000000     4.434000000     0.356000000
O    -4.039000000    -1.130000000    -0.084000000
H    -3.554000000    -0.320000000     0.073000000
H    -3.881000000    -1.660000000     0.698000000
O     0.639000000     3.983000000     5.034000000
H    -0.146000000     4.186000000     5.542000000
H     0.388000000     3.234000000     4.494000000
O    -0.612000000    -4.094000000    -3.017000000
H     0.246000000    -3.995000000    -2.603000000
H    -1.137000000    -4.565000000    -2.370000000
O    -2.117000000    -5.475000000    -1.212000000
H    -2.353000000    -6.380000000    -1.415000000
H    -2.004000000    -5.463000000    -0.262000000
O     0.573000000     3.252000000    -4.483000000
H    -0.145000000     3.158000000    -3.858000000
H     1.354000000     2.999000000    -3.991000000
O     2.715000000     2.058000000     3.756000000
H     2.897000000     2.965000000     3.509000000
H     1.871000000     1.863000000     3.349000000
O     2.291000000    -1.684000000     1.439000000
H     1.699000000    -1.061000000     1.018000000
H     2.728000000    -1.174000000     2.122000000
O     2.851000000     2.437000000    -3.245000000
H     3.246000000     1.746000000    -2.714000000
H     3.129000000     3.251000000    -2.823000000
O     1.230000000     0.193000000     7.726000000
H     0.324000000     0.468000000     7.866000000
H     1.218000000    -0.244000000     6.874000000
O     3.664000000     2.219000000     0.772000000
H     3.047000000     2.875000000     0.447000000
H     4.518000000     2.649000000     0.725000000
O    -4.389000000     0.288000000    -4.872000000
H    -3.987000000     0.037000000    -5.703000000
H    -3.816000000    -0.088000000    -4.204000000
O    -1.713000000     2.935000000    -2.709000000
H    -1.518000000     3.453000000    -1.928000000
H    -2.448000000     2.379000000    -2.451000000
O     1.583000000    -4.171000000    -6.578000000
H     2.237000000    -4.829000000    -6.815000000
H     2.067000000    -3.526000000    -6.063000000
O    -0.743000000     3.926000000     2.021000000
H    -1.447000000     4.347000000     2.514000000
H    -0.747000000     3.019000000     2.326000000
O    -1.480000000    -0.388000000     6.191000000
H    -1.331000000    -0.394000000     5.246000000
H    -1.753000000    -1.283000000     6.396000000
O    -2.152000000    -3.744000000     5.676000000
H    -2.988000000    -4.186000000     5.825000000
H    -1.573000000    -4.092000000     6.354000000
O    -5.077000000    -2.625000000    -2.117000000
H    -4.842000000    -2.131000000    -1.331000000
H    -4.800000000    -2.065000000    -2.843000000
O     3.828000000     4.372000000     2.733000000
H     3.905000000     4.423000000     1.780000000
H     4.732000000     4.330000000     3.044000000
