161
-3050.05480
C    -0.118000000     0.976000000     1.078000000
H    -0.181000000     1.726000000     1.862000000
C     0.320000000     1.260000000    -0.180000000
H     0.650000000     2.253000000    -0.473000000
C     0.411000000     0.284000000    -1.165000000
C     0.750000000     0.622000000    -2.575000000
H    -0.014000000     0.077000000    -3.133000000
H     0.644000000     1.709000000    -2.574000000
H     1.770000000     0.279000000    -2.765000000
C     0.033000000    -1.011000000    -0.811000000
H     0.097000000    -1.773000000    -1.583000000
C    -0.308000000    -1.366000000     0.478000000
H    -0.683000000    -2.376000000     0.624000000
C    -0.434000000    -0.363000000     1.476000000
C    -0.882000000    -0.680000000     2.868000000
O    -1.131000000    -1.814000000     3.180000000
O    -0.923000000     0.195000000     3.694000000
O    -1.504000000    -7.030000000     3.029000000
H    -1.522000000    -6.219000000     2.520000000
H    -0.573000000    -7.206000000     3.164000000
O    -3.025000000    -3.816000000     7.384000000
H    -2.508000000    -4.512000000     7.788000000
H    -2.846000000    -3.898000000     6.447000000
O    -2.185000000    -4.047000000    -2.478000000
H    -1.685000000    -4.479000000    -1.786000000
H    -2.484000000    -3.228000000    -2.082000000
O    -3.825000000    -1.893000000    -1.270000000
H    -4.166000000    -1.065000000    -1.609000000
H    -4.372000000    -2.563000000    -1.680000000
O     3.903000000     2.956000000    -3.902000000
H     4.528000000     3.101000000    -3.191000000
H     4.026000000     2.038000000    -4.145000000
O     4.119000000     0.852000000    -0.577000000
H     4.334000000     1.681000000    -1.006000000
H     4.901000000     0.637000000    -0.068000000
O    -3.442000000     2.976000000     7.039000000
H    -3.232000000     2.724000000     6.140000000
H    -4.342000000     3.300000000     6.994000000
O     6.834000000     0.488000000    -2.450000000
H     6.087000000     0.873000000    -2.909000000
H     7.356000000     1.240000000    -2.170000000
O    -2.641000000     1.132000000    -1.680000000
H    -2.159000000     0.689000000    -0.981000000
H    -2.400000000     2.054000000    -1.590000000
O    -4.325000000     3.628000000     2.137000000
H    -3.673000000     4.323000000     2.052000000
H    -5.083000000     3.950000000     1.650000000
O     2.479000000    -3.130000000     2.117000000
H     2.522000000    -2.200000000     2.339000000
H     2.780000000    -3.174000000     1.210000000
O     3.800000000    -1.380000000    -1.976000000
H     3.767000000    -0.499000000    -1.604000000
H     3.873000000    -1.958000000    -1.217000000
O     3.027000000    -0.120000000     4.189000000
H     2.914000000    -0.117000000     3.238000000
H     2.136000000    -0.171000000     4.535000000
O     2.594000000     5.066000000     0.992000000
H     2.106000000     5.889000000     0.967000000
H     2.407000000     4.651000000     0.149000000
O    -2.683000000     2.247000000     4.283000000
H    -2.961000000     2.683000000     3.477000000
H    -2.092000000     1.554000000     3.989000000
O    -5.108000000     1.371000000     4.894000000
H    -5.495000000     1.876000000     5.609000000
H    -4.336000000     1.875000000     4.636000000
O    -0.297000000     1.611000000    -6.128000000
H    -0.092000000     2.306000000    -5.503000000
H    -0.949000000     1.999000000    -6.712000000
O    -0.606000000     5.252000000    -2.585000000
H    -0.994000000     6.110000000    -2.415000000
H    -1.049000000     4.663000000    -1.975000000
O     3.489000000    -4.308000000    -0.146000000
H     2.759000000    -4.918000000    -0.041000000
H     4.018000000    -4.686000000    -0.848000000
O     0.114000000     4.007000000    -4.864000000
H    -0.334000000     4.654000000    -4.318000000
H     0.396000000     4.499000000    -5.635000000
O    -4.116000000    -1.165000000     5.493000000
H    -4.212000000    -0.280000000     5.142000000
H    -3.289000000    -1.143000000     5.975000000
O     3.490000000     2.891000000     3.530000000
H     2.671000000     2.434000000     3.340000000
H     3.220000000     3.782000000     3.754000000
O    -4.938000000     0.731000000     2.311000000
H    -5.008000000     1.686000000     2.297000000
H    -5.280000000     0.479000000     3.168000000
O    -4.377000000    -2.485000000     1.524000000
H    -4.305000000    -2.248000000     0.599000000
H    -4.106000000    -1.698000000     1.995000000
O     4.758000000     0.329000000    -4.043000000
H     5.169000000    -0.286000000    -4.650000000
H     4.308000000    -0.227000000    -3.407000000
O    -0.300000000    -4.177000000     2.516000000
H    -0.556000000    -3.292000000     2.775000000
H     0.643000000    -4.210000000     2.675000000
O     0.107000000    -4.343000000     5.811000000
H     0.577000000    -4.989000000     5.285000000
H    -0.688000000    -4.159000000     5.310000000
O     2.927000000    -5.342000000    -4.200000000
H     2.485000000    -5.559000000    -5.021000000
H     2.745000000    -4.411000000    -4.069000000
O     2.528000000    -0.199000000     1.392000000
H     3.045000000     0.187000000     0.685000000
H     1.618000000    -0.046000000     1.134000000
O    -2.097000000     3.714000000    -0.913000000
H    -2.811000000     4.313000000    -1.131000000
H    -2.012000000     3.779000000     0.038000000
O     0.687000000     2.456000000     4.411000000
H     0.447000000     2.583000000     5.329000000
H     0.346000000     1.589000000     4.192000000
O     2.608000000     1.717000000     7.088000000
H     1.727000000     2.001000000     7.333000000
H     2.572000000     1.620000000     6.136000000
O    -0.356000000     2.938000000     6.824000000
H    -1.259000000     3.023000000     6.516000000
H    -0.347000000     2.115000000     7.314000000
O    -1.515000000    -4.909000000     0.130000000
H    -2.221000000    -5.435000000     0.506000000
H    -1.096000000    -4.496000000     0.886000000
O     2.311000000     3.836000000    -1.834000000
H     1.418000000     4.142000000    -1.990000000
H     2.561000000     3.401000000    -2.649000000
O     1.894000000    -0.665000000    -5.596000000
H     1.388000000     0.137000000    -5.468000000
H     2.696000000    -0.375000000    -6.030000000
O     3.021000000     3.687000000    -6.565000000
H     2.951000000     3.548000000    -5.621000000
H     3.390000000     2.870000000    -6.901000000
O    -1.862000000     4.872000000     2.111000000
H    -2.036000000     5.595000000     1.508000000
H    -0.982000000     5.045000000     2.445000000
O    -3.739000000    -4.902000000     2.527000000
H    -4.085000000    -5.352000000     1.756000000
H    -4.045000000    -4.000000000     2.436000000
O     0.304000000    -3.211000000    -6.424000000
H     0.772000000    -2.517000000    -5.961000000
H    -0.488000000    -3.353000000    -5.907000000
O    -2.012000000    -3.105000000    -5.013000000
H    -1.927000000    -3.574000000    -4.183000000
H    -2.327000000    -2.236000000    -4.765000000
O     1.541000000    -6.261000000    -0.050000000
H     1.459000000    -7.026000000     0.520000000
H     1.054000000    -6.497000000    -0.840000000
O     0.608000000     4.954000000     2.997000000
H     1.372000000     5.110000000     2.442000000
H     0.823000000     4.159000000     3.484000000
O     0.549000000    -1.555000000     5.618000000
H     0.606000000    -2.495000000     5.790000000
H    -0.111000000    -1.477000000     4.929000000
O     2.422000000    -2.776000000    -3.969000000
H     2.390000000    -1.994000000    -4.520000000
H     2.957000000    -2.517000000    -3.218000000
O    -2.152000000    -3.455000000     4.794000000
H    -1.926000000    -2.763000000     4.172000000
H    -2.565000000    -4.132000000     4.259000000
O    -0.613000000     0.177000000     7.540000000
H    -0.235000000    -0.335000000     6.825000000
H    -0.318000000    -0.266000000     8.335000000
O    -2.672000000    -0.491000000    -3.980000000
H    -2.879000000     0.254000000    -4.546000000
H    -2.330000000    -0.095000000    -3.179000000
