161
-3041.66226
C    -0.715000000     0.760000000     1.048000000
H    -1.114000000     1.472000000     1.766000000
C    -0.441000000     1.169000000    -0.249000000
H    -0.733000000     2.163000000    -0.578000000
C     0.224000000     0.374000000    -1.187000000
C     0.670000000     0.899000000    -2.545000000
H     1.748000000     1.044000000    -2.451000000
H     0.415000000     0.202000000    -3.345000000
H     0.102000000     1.814000000    -2.727000000
C     0.457000000    -0.966000000    -0.844000000
H     0.964000000    -1.616000000    -1.553000000
C     0.234000000    -1.389000000     0.521000000
H     0.248000000    -2.406000000     0.905000000
C    -0.342000000    -0.515000000     1.453000000
C    -0.587000000    -0.912000000     2.868000000
O    -0.459000000    -2.032000000     3.196000000
O    -0.675000000    -0.067000000     3.723000000
O    -1.271000000    -6.181000000     3.035000000
H    -1.609000000    -5.528000000     3.648000000
H    -0.352000000    -5.942000000     2.913000000
O    -3.236000000    -2.125000000    -0.606000000
H    -3.861000000    -1.416000000    -0.456000000
H    -2.520000000    -1.946000000     0.002000000
O    -5.314000000    -0.476000000    -0.053000000
H    -4.977000000     0.312000000    -0.480000000
H    -6.252000000    -0.313000000     0.046000000
O     4.201000000     1.961000000    -1.920000000
H     5.045000000     2.341000000    -2.162000000
H     3.679000000     2.706000000    -1.621000000
O    -3.983000000     1.588000000    -1.386000000
H    -3.238000000     1.986000000    -0.935000000
H    -3.588000000     1.060000000    -2.080000000
O    -3.542000000     2.605000000     2.172000000
H    -2.972000000     3.141000000     1.620000000
H    -4.372000000     3.081000000     2.193000000
O     5.044000000    -3.252000000    -0.180000000
H     4.490000000    -2.517000000    -0.445000000
H     5.656000000    -2.875000000     0.452000000
O     4.167000000    -2.326000000    -3.944000000
H     4.024000000    -3.019000000    -3.299000000
H     5.096000000    -2.395000000    -4.166000000
O     1.120000000    -2.135000000     5.474000000
H     0.470000000    -1.890000000     4.816000000
H     0.679000000    -2.788000000     6.016000000
O     2.314000000     3.215000000     1.453000000
H     3.234000000     2.958000000     1.404000000
H     2.130000000     3.610000000     0.600000000
O    -2.620000000     1.421000000     4.630000000
H    -3.159000000     1.698000000     3.889000000
H    -2.011000000     0.783000000     4.257000000
O    -3.620000000     2.075000000    -4.166000000
H    -3.676000000     2.877000000    -4.684000000
H    -4.526000000     1.775000000    -4.088000000
O     0.008000000     4.674000000    -3.259000000
H     0.227000000     5.544000000    -3.593000000
H    -0.936000000     4.707000000    -3.105000000
O     2.782000000    -4.252000000    -2.120000000
H     1.983000000    -4.530000000    -1.671000000
H     3.156000000    -3.581000000    -1.549000000
O     0.027000000     3.024000000    -5.340000000
H     0.050000000     3.545000000    -4.537000000
H    -0.712000000     3.380000000    -5.834000000
O    -4.845000000    -1.041000000     6.113000000
H    -4.840000000    -0.215000000     5.629000000
H    -3.924000000    -1.202000000     6.320000000
O     2.541000000     4.126000000     5.398000000
H     2.177000000     3.409000000     4.878000000
H     2.922000000     3.697000000     6.164000000
O     4.384000000     0.655000000    -4.378000000
H     4.231000000     0.971000000    -3.488000000
H     4.063000000    -0.247000000    -4.370000000
O     1.125000000    -4.555000000     3.281000000
H     0.710000000    -3.692000000     3.271000000
H     1.914000000    -4.447000000     2.751000000
O    -0.214000000    -3.477000000     7.387000000
H    -0.721000000    -3.235000000     8.162000000
H     0.338000000    -4.203000000     7.679000000
O     4.007000000    -0.849000000    -1.145000000
H     3.939000000    -0.064000000    -1.688000000
H     3.363000000    -0.717000000    -0.450000000
O     3.640000000    -4.607000000     2.171000000
H     4.378000000    -4.606000000     1.561000000
H     3.903000000    -4.003000000     2.865000000
O     3.307000000    -0.715000000     4.470000000
H     2.500000000    -1.224000000     4.537000000
H     3.226000000    -0.246000000     3.639000000
O    -2.382000000     4.380000000    -2.541000000
H    -2.659000000     3.471000000    -2.652000000
H    -3.069000000     4.776000000    -2.005000000
O     1.505000000     1.878000000     4.111000000
H     1.842000000     1.804000000     3.218000000
H     0.685000000     1.385000000     4.099000000
O    -1.897000000     2.883000000     7.064000000
H    -1.830000000     2.518000000     6.182000000
H    -1.698000000     2.147000000     7.644000000
O    -4.933000000     4.185000000    -1.461000000
H    -5.405000000     4.187000000    -2.294000000
H    -4.936000000     3.268000000    -1.186000000
O     1.753000000    -6.017000000    -4.158000000
H     2.146000000    -5.576000000    -3.405000000
H     1.129000000    -5.381000000    -4.509000000
O    -2.006000000    -4.796000000     0.670000000
H    -2.925000000    -4.550000000     0.560000000
H    -1.991000000    -5.310000000     1.478000000
O     2.353000000     3.917000000    -1.491000000
H     1.614000000     3.950000000    -2.098000000
H     2.918000000     4.641000000    -1.762000000
O    -1.022000000    -1.217000000    -6.936000000
H    -0.278000000    -0.651000000    -6.728000000
H    -0.648000000    -1.916000000    -7.473000000
O     3.971000000    -3.462000000     4.636000000
H     3.334000000    -3.537000000     5.347000000
H     4.500000000    -2.698000000     4.868000000
O     3.011000000     3.087000000    -5.260000000
H     2.059000000     2.995000000    -5.250000000
H     3.333000000     2.290000000    -4.837000000
O    -1.859000000     4.345000000     0.566000000
H    -1.678000000     5.223000000     0.229000000
H    -1.170000000     4.190000000     1.212000000
O     2.230000000    -0.599000000    -7.322000000
H     3.175000000    -0.745000000    -7.282000000
H     2.098000000    -0.109000000    -8.133000000
O     2.211000000    -0.405000000     7.356000000
H     1.389000000    -0.806000000     7.073000000
H     2.188000000     0.477000000     6.985000000
O    -4.664000000    -3.416000000     2.848000000
H    -4.807000000    -3.944000000     2.063000000
H    -5.072000000    -2.574000000     2.649000000
O     2.385000000     0.636000000     1.839000000
H     1.593000000     0.466000000     1.328000000
H     2.834000000     1.333000000     1.361000000
O    -0.149000000    -4.306000000    -5.118000000
H     0.407000000    -3.530000000    -5.041000000
H    -0.896000000    -4.123000000    -4.549000000
O    -1.902000000    -3.008000000    -3.209000000
H    -2.552000000    -3.010000000    -2.506000000
H    -1.838000000    -2.090000000    -3.473000000
O    -3.253000000    -4.769000000     6.649000000
H    -3.060000000    -4.159000000     5.938000000
H    -3.870000000    -5.394000000     6.268000000
O     0.562000000    -5.498000000    -0.765000000
H     0.097000000    -5.301000000     0.048000000
H    -0.079000000    -5.323000000    -1.455000000
O    -0.062000000     4.094000000     2.595000000
H     0.783000000     3.737000000     2.323000000
H    -0.221000000     3.704000000     3.455000000
O    -2.111000000    -1.346000000     5.949000000
H    -1.942000000    -2.164000000     5.481000000
H    -1.749000000    -0.666000000     5.381000000
O     1.658000000    -2.257000000    -5.007000000
H     1.842000000    -1.765000000    -5.807000000
H     2.496000000    -2.284000000    -4.545000000
O    -2.372000000    -3.691000000     4.159000000
H    -1.791000000    -2.960000000     3.949000000
H    -3.169000000    -3.515000000     3.658000000
O    -1.129000000     0.540000000     8.272000000
H    -1.538000000    -0.270000000     7.966000000
H    -0.904000000     0.364000000     9.186000000
O    -1.987000000    -0.125000000    -3.550000000
H    -2.169000000     0.665000000    -4.060000000
H    -1.060000000    -0.055000000    -3.324000000
