161
-3012.95518
C     0.929000000    -1.171000000     0.137000000
H     1.685000000    -1.952000000     0.096000000
C     1.027000000    -0.112000000    -0.792000000
H     1.815000000    -0.161000000    -1.539000000
C     0.136000000     0.937000000    -0.759000000
C     0.312000000     2.127000000    -1.717000000
H    -0.037000000     2.052000000    -2.749000000
H    -0.253000000     2.952000000    -1.279000000
H     1.337000000     2.501000000    -1.750000000
C    -0.892000000     0.883000000     0.144000000
H    -1.619000000     1.686000000     0.054000000
C    -1.125000000    -0.172000000     1.000000000
H    -1.935000000    -0.222000000     1.723000000
C    -0.185000000    -1.218000000     1.019000000
C    -0.309000000    -2.381000000     1.948000000
O    -1.307000000    -2.437000000     2.619000000
O     0.415000000    -3.312000000     1.847000000
O     0.114000000     1.904000000     2.492000000
H     0.917000000     1.443000000     2.737000000
H    -0.311000000     1.325000000     1.859000000
O     4.524000000    -6.191000000     0.049000000
H     4.253000000    -5.283000000     0.185000000
H     3.704000000    -6.685000000     0.024000000
O    -0.151000000     1.115000000    -6.219000000
H     0.707000000     1.085000000    -5.794000000
H    -0.632000000     0.380000000    -5.838000000
O    -4.306000000     0.821000000     2.226000000
H    -4.644000000    -0.075000000     2.229000000
H    -4.184000000     1.028000000     1.300000000
O    -2.130000000     2.664000000    -5.361000000
H    -1.358000000     2.135000000    -5.565000000
H    -2.543000000     2.212000000    -4.625000000
O     0.454000000    -4.122000000    -3.258000000
H     1.357000000    -4.005000000    -2.962000000
H    -0.032000000    -4.338000000    -2.462000000
O     4.605000000    -1.631000000    -3.871000000
H     5.051000000    -1.643000000    -3.024000000
H     4.809000000    -0.770000000    -4.237000000
O    -4.728000000    -0.096000000     5.535000000
H    -3.976000000     0.304000000     5.971000000
H    -4.363000000    -0.497000000     4.747000000
O    -0.361000000    -7.644000000     3.537000000
H    -0.851000000    -7.660000000     4.359000000
H    -0.907000000    -7.132000000     2.942000000
O     3.108000000    -2.946000000    -5.512000000
H     2.778000000    -3.672000000    -4.982000000
H     3.627000000    -2.421000000    -4.903000000
O     1.373000000    -4.204000000     6.714000000
H     1.599000000    -3.581000000     6.023000000
H     2.081000000    -4.120000000     7.353000000
O     5.694000000     4.347000000    -2.936000000
H     4.793000000     4.620000000    -2.766000000
H     6.158000000     4.531000000    -2.120000000
O     5.359000000    -1.141000000    -1.119000000
H     6.020000000    -0.573000000    -1.514000000
H     4.865000000    -0.565000000    -0.536000000
O     5.324000000     1.618000000    -3.871000000
H     5.501000000     2.559000000    -3.858000000
H     4.374000000     1.554000000    -3.961000000
O    -1.757000000    -0.590000000    -5.206000000
H    -2.010000000    -0.391000000    -4.304000000
H    -1.863000000    -1.538000000    -5.281000000
O     1.040000000     4.406000000    -4.786000000
H     1.846000000     4.838000000    -4.504000000
H     0.763000000     4.897000000    -5.560000000
O    -0.108000000    -4.739000000    -0.704000000
H     0.164000000    -4.268000000     0.083000000
H    -0.997000000    -4.427000000    -0.874000000
O     3.742000000    -6.962000000     3.065000000
H     2.980000000    -6.384000000     3.101000000
H     3.444000000    -7.719000000     2.560000000
O    -2.230000000     0.945000000     6.213000000
H    -1.781000000     1.629000000     5.716000000
H    -1.752000000     0.143000000     6.001000000
O     2.928000000     2.342000000    -4.873000000
H     2.092000000     2.788000000    -4.740000000
H     3.420000000     2.922000000    -5.455000000
O    -1.105000000     5.210000000    -0.034000000
H    -0.961000000     5.111000000    -0.975000000
H    -1.300000000     6.140000000     0.082000000
O    -5.488000000    -3.514000000     4.754000000
H    -5.991000000    -3.776000000     3.984000000
H    -4.585000000    -3.456000000     4.441000000
O     3.131000000    -2.966000000     2.621000000
H     2.239000000    -2.622000000     2.583000000
H     3.028000000    -3.866000000     2.931000000
O     4.144000000     0.139000000     0.826000000
H     4.044000000     1.077000000     0.991000000
H     3.258000000    -0.167000000     0.635000000
O    -3.176000000     1.876000000    -2.967000000
H    -3.619000000     2.382000000    -2.286000000
H    -2.907000000     1.068000000    -2.530000000
O    -2.412000000    -3.457000000    -1.624000000
H    -2.962000000    -4.146000000    -1.996000000
H    -3.025000000    -2.886000000    -1.159000000
O    -2.832000000    -3.889000000     4.085000000
H    -2.384000000    -4.130000000     4.896000000
H    -2.170000000    -3.419000000     3.577000000
O    -3.670000000    -2.341000000     0.811000000
H    -4.446000000    -1.887000000     1.142000000
H    -3.060000000    -2.341000000     1.548000000
O    -1.959000000    -0.701000000    -2.186000000
H    -1.531000000    -1.556000000    -2.141000000
H    -1.764000000    -0.292000000    -1.343000000
O     1.716000000    -1.422000000     5.492000000
H     2.001000000    -0.800000000     6.161000000
H     1.889000000    -0.977000000     4.662000000
O    -1.062000000    -1.455000000     5.681000000
H    -0.148000000    -1.391000000     5.401000000
H    -1.423000000    -2.171000000     5.159000000
O    -0.692000000     2.823000000     4.802000000
H     0.161000000     3.176000000     5.053000000
H    -0.571000000     2.519000000     3.902000000
O     2.366000000    -0.032000000     3.321000000
H     2.882000000    -0.575000000     2.724000000
H     2.996000000     0.594000000     3.679000000
O    -5.888000000    -1.202000000     1.760000000
H    -6.264000000    -2.065000000     1.935000000
H    -6.621000000    -0.596000000     1.868000000
O     2.849000000    -4.087000000    -2.155000000
H     3.675000000    -4.380000000    -2.540000000
H     3.110000000    -3.558000000    -1.402000000
O     3.486000000     2.939000000     0.446000000
H     2.647000000     3.050000000     0.892000000
H     3.521000000     3.660000000    -0.182000000
O    -3.163000000     6.288000000    -2.277000000
H    -3.054000000     7.008000000    -1.655000000
H    -2.313000000     5.849000000    -2.286000000
O    -0.590000000    -7.430000000    -0.030000000
H    -0.410000000    -6.705000000     0.569000000
H    -1.033000000    -8.084000000     0.510000000
O     3.964000000    -3.154000000     0.130000000
H     3.914000000    -2.958000000     1.066000000
H     4.430000000    -2.408000000    -0.247000000
O    -0.713000000     5.536000000    -3.009000000
H    -0.341000000     5.020000000    -3.724000000
H    -0.511000000     6.444000000    -3.238000000
O     1.713000000    -5.112000000     3.413000000
H     1.324000000    -4.617000000     2.691000000
H     1.000000000    -5.216000000     4.043000000
O    -5.912000000     2.637000000     3.404000000
H    -6.503000000     2.617000000     2.651000000
H    -5.322000000     1.896000000     3.265000000
O    -1.166000000    -4.641000000     6.214000000
H    -1.315000000    -4.222000000     7.061000000
H    -0.219000000    -4.777000000     6.177000000
O     3.452000000     5.158000000    -1.414000000
H     3.216000000     5.531000000    -2.264000000
H     2.842000000     5.563000000    -0.797000000
O    -4.162000000    -5.129000000     0.463000000
H    -4.795000000    -5.176000000    -0.253000000
H    -4.190000000    -4.216000000     0.749000000
O    -1.572000000    -5.605000000     1.883000000
H    -1.205000000    -4.770000000     2.174000000
H    -2.518000000    -5.464000000     1.883000000
O     0.917000000     4.234000000     1.164000000
H     0.487000000     3.440000000     1.481000000
H     0.307000000     4.597000000     0.521000000
O    -4.260000000     1.745000000    -0.490000000
H    -4.577000000     2.647000000    -0.444000000
H    -5.009000000     1.245000000    -0.815000000
