161
-3049.62611
C     1.205000000    -0.836000000     0.249000000
H     2.144000000    -1.333000000     0.476000000
C     1.176000000     0.438000000    -0.298000000
H     2.111000000     0.887000000    -0.624000000
C    -0.020000000     1.125000000    -0.531000000
C     0.002000000     2.571000000    -0.888000000
H    -0.745000000     3.185000000    -0.380000000
H     0.951000000     2.991000000    -0.550000000
H    -0.048000000     2.648000000    -1.976000000
C    -1.240000000     0.488000000    -0.293000000
H    -2.187000000     1.011000000    -0.394000000
C    -1.147000000    -0.859000000     0.096000000
H    -2.050000000    -1.442000000     0.260000000
C    -0.011000000    -1.469000000     0.541000000
C    -0.062000000    -2.749000000     1.304000000
O    -1.052000000    -3.464000000     1.205000000
O     0.966000000    -3.192000000     1.808000000
O     1.013000000     0.926000000     3.292000000
H     1.012000000     1.833000000     2.985000000
H     0.472000000     0.457000000     2.658000000
O    -3.127000000     0.538000000     2.019000000
H    -4.077000000     0.600000000     2.121000000
H    -2.825000000     1.446000000     2.029000000
O    -1.598000000     2.877000000     2.767000000
H    -1.414000000     2.715000000     3.693000000
H    -2.080000000     3.704000000     2.761000000
O    -3.149000000    -1.077000000     4.174000000
H    -2.297000000    -1.464000000     4.378000000
H    -3.022000000    -0.655000000     3.324000000
O     0.455000000    -7.780000000     1.417000000
H     0.550000000    -7.622000000     2.357000000
H    -0.151000000    -7.101000000     1.120000000
O    -3.733000000     4.677000000    -0.922000000
H    -4.201000000     5.511000000    -0.890000000
H    -3.431000000     4.606000000    -1.827000000
O     5.032000000     3.592000000    -2.911000000
H     4.814000000     3.604000000    -1.979000000
H     5.740000000     4.230000000    -2.999000000
O     3.865000000    -1.767000000    -1.896000000
H     4.351000000    -1.506000000    -2.678000000
H     3.931000000    -1.014000000    -1.310000000
O     2.503000000    -0.131000000     5.275000000
H     2.099000000     0.553000000     4.741000000
H     2.228000000    -0.950000000     4.864000000
O     5.338000000    -1.168000000     3.454000000
H     4.595000000    -1.747000000     3.283000000
H     5.344000000    -1.061000000     4.405000000
O     4.795000000     1.657000000    -4.890000000
H     4.844000000     2.095000000    -4.040000000
H     5.436000000     2.116000000    -5.433000000
O     2.918000000     4.716000000    -3.974000000
H     3.640000000     4.297000000    -3.506000000
H     3.342000000     5.194000000    -4.687000000
O     2.163000000    -3.955000000    -2.708000000
H     2.772000000    -3.410000000    -2.210000000
H     1.517000000    -4.243000000    -2.063000000
O    -2.135000000    -7.171000000     0.828000000
H    -2.835000000    -7.069000000     0.184000000
H    -2.065000000    -8.117000000     0.958000000
O     2.965000000    -5.406000000     3.772000000
H     2.016000000    -5.318000000     3.862000000
H     3.088000000    -6.258000000     3.353000000
O    -0.373000000     3.096000000    -6.200000000
H     0.091000000     3.518000000    -5.476000000
H     0.259000000     3.091000000    -6.919000000
O     1.662000000     5.766000000     0.613000000
H     2.403000000     5.806000000     0.007000000
H     0.932000000     6.146000000     0.124000000
O    -3.788000000    -3.627000000     5.173000000
H    -3.819000000    -2.796000000     4.699000000
H    -3.573000000    -4.276000000     4.502000000
O     3.025000000    -3.971000000     0.273000000
H     2.243000000    -3.499000000     0.559000000
H     3.411000000    -4.308000000     1.081000000
O     4.686000000     0.644000000    -0.321000000
H     4.411000000     1.539000000    -0.521000000
H     5.171000000     0.721000000     0.501000000
O    -2.356000000     0.936000000    -5.642000000
H    -1.555000000     1.338000000    -5.978000000
H    -2.109000000     0.592000000    -4.783000000
O    -1.105000000    -3.517000000    -2.466000000
H    -0.655000000    -4.264000000    -2.072000000
H    -1.839000000    -3.342000000    -1.876000000
O    -5.995000000     1.331000000    -2.577000000
H    -6.681000000     1.032000000    -3.172000000
H    -5.192000000     1.290000000    -3.096000000
O    -2.537000000    -5.224000000     2.823000000
H    -2.364000000    -5.856000000     2.126000000
H    -2.397000000    -4.370000000     2.412000000
O    -3.173000000    -3.711000000    -0.457000000
H    -3.790000000    -3.010000000    -0.244000000
H    -2.489000000    -3.637000000     0.208000000
O    -1.845000000    -0.455000000    -2.998000000
H    -1.699000000    -1.401000000    -2.999000000
H    -1.499000000    -0.160000000    -2.156000000
O     1.161000000    -3.408000000     6.415000000
H     2.009000000    -3.229000000     6.821000000
H     0.577000000    -3.594000000     7.151000000
O    -0.585000000    -1.810000000     4.590000000
H     0.052000000    -2.274000000     5.134000000
H    -0.075000000    -1.490000000     3.845000000
O     3.052000000    -2.669000000     3.349000000
H     2.217000000    -2.735000000     2.885000000
H     3.256000000    -3.570000000     3.602000000
O    -4.517000000    -1.610000000     0.217000000
H    -5.018000000    -1.786000000     1.013000000
H    -4.415000000    -0.659000000     0.203000000
O     4.380000000     3.597000000    -0.032000000
H     4.524000000     3.470000000     0.905000000
H     3.886000000     4.415000000    -0.090000000
O    -0.177000000    -7.647000000    -1.881000000
H    -0.653000000    -7.411000000    -2.677000000
H    -0.056000000    -6.818000000    -1.420000000
O    -2.279000000     4.930000000    -3.167000000
H    -1.438000000     4.556000000    -3.429000000
H    -2.289000000     5.800000000    -3.564000000
O     0.181000000     7.816000000    -0.947000000
H     0.102000000     8.749000000    -0.748000000
H    -0.238000000     7.377000000    -0.207000000
O     5.510000000    -4.656000000    -0.563000000
H     4.566000000    -4.621000000    -0.406000000
H     5.811000000    -3.760000000    -0.412000000
O     0.227000000     4.794000000    -4.157000000
H     1.038000000     4.358000000    -3.896000000
H     0.415000000     5.728000000    -4.060000000
O    -6.772000000    -3.184000000    -1.462000000
H    -6.226000000    -2.830000000    -0.759000000
H    -6.164000000    -3.331000000    -2.186000000
O     0.350000000    -5.206000000     3.503000000
H     0.637000000    -4.589000000     2.830000000
H    -0.584000000    -5.026000000     3.611000000
O     6.418000000    -1.960000000     0.205000000
H     6.317000000    -1.223000000     0.807000000
H     6.511000000    -1.554000000    -0.657000000
O     5.947000000     1.506000000     2.184000000
H     5.369000000     2.171000000     2.559000000
H     5.755000000     0.712000000     2.683000000
O     3.281000000     5.882000000    -1.601000000
H     3.295000000     5.519000000    -2.486000000
H     4.022000000     6.488000000    -1.579000000
O    -5.761000000    -5.531000000    -0.178000000
H    -6.507000000    -5.135000000     0.272000000
H    -5.269000000    -4.787000000    -0.527000000
O    -4.682000000    -3.712000000    -3.220000000
H    -4.260000000    -4.554000000    -3.395000000
H    -3.992000000    -3.174000000    -2.833000000
O     4.129000000     3.313000000     2.825000000
H     4.247000000     3.869000000     3.596000000
H     3.180000000     3.221000000     2.740000000
O     0.673000000    -5.145000000    -0.557000000
H     0.101000000    -4.658000000     0.036000000
H     1.559000000    -4.937000000    -0.260000000
O     0.961000000     3.632000000     2.016000000
H     0.039000000     3.464000000     1.823000000
H     1.161000000     4.442000000     1.547000000
O    -5.392000000     2.424000000     0.003000000
H    -4.771000000     3.152000000     0.007000000
H    -5.213000000     1.961000000    -0.815000000
O    -1.309000000     5.952000000     0.512000000
H    -1.772000000     5.427000000    -0.141000000
H    -1.814000000     5.833000000     1.316000000
