161
-3050.79618
C     0.521000000    -1.358000000    -0.452000000
H     0.997000000    -2.284000000    -0.764000000
C     0.951000000    -0.081000000    -0.992000000
H     1.795000000    -0.144000000    -1.675000000
C     0.335000000     1.092000000    -0.528000000
C     0.839000000     2.457000000    -0.996000000
H     0.014000000     3.090000000    -1.328000000
H     1.354000000     2.954000000    -0.171000000
H     1.484000000     2.350000000    -1.870000000
C    -0.668000000     0.973000000     0.429000000
H    -1.063000000     1.913000000     0.805000000
C    -1.190000000    -0.214000000     0.917000000
H    -1.971000000    -0.235000000     1.672000000
C    -0.532000000    -1.408000000     0.518000000
C    -0.912000000    -2.704000000     1.242000000
O    -1.719000000    -2.715000000     2.125000000
O    -0.234000000    -3.681000000     1.070000000
O     0.473000000    -0.101000000     4.830000000
H     1.233000000     0.456000000     4.999000000
H     0.720000000    -0.956000000     5.180000000
O     0.348000000    -4.959000000    -1.222000000
H     1.247000000    -5.271000000    -1.326000000
H     0.381000000    -4.384000000    -0.457000000
O    -5.905000000     2.611000000     0.326000000
H    -5.298000000     2.723000000    -0.405000000
H    -6.706000000     2.276000000    -0.077000000
O     6.318000000    -0.883000000    -0.926000000
H     7.243000000    -1.036000000    -1.119000000
H     5.886000000    -0.918000000    -1.779000000
O    -4.119000000     0.015000000    -1.954000000
H    -3.680000000    -0.654000000    -2.480000000
H    -4.747000000    -0.472000000    -1.421000000
O    -3.238000000     3.122000000     2.536000000
H    -3.763000000     3.058000000     1.739000000
H    -2.609000000     3.820000000     2.353000000
O     1.286000000    -2.948000000     5.650000000
H     0.487000000    -2.865000000     6.170000000
H     1.241000000    -3.831000000     5.281000000
O    -3.887000000     3.080000000    -1.505000000
H    -3.625000000     3.546000000    -2.299000000
H    -3.775000000     2.154000000    -1.723000000
O     4.654000000    -5.397000000     1.697000000
H     3.698000000    -5.385000000     1.654000000
H     4.895000000    -4.499000000     1.925000000
O     3.469000000     4.595000000    -2.216000000
H     2.975000000     5.414000000    -2.167000000
H     4.060000000     4.627000000    -1.463000000
O    -2.249000000     6.998000000    -2.023000000
H    -1.384000000     7.198000000    -2.379000000
H    -2.312000000     7.532000000    -1.231000000
O     0.359000000     4.992000000     1.467000000
H    -0.473000000     4.750000000     1.061000000
H     0.510000000     4.316000000     2.127000000
O     1.165000000    -5.500000000    -4.238000000
H     1.214000000    -5.692000000    -3.302000000
H     1.447000000    -6.310000000    -4.664000000
O    -1.583000000    -3.023000000     6.909000000
H    -1.059000000    -2.556000000     7.560000000
H    -1.672000000    -2.404000000     6.184000000
O     1.978000000     2.120000000    -6.856000000
H     2.429000000     1.583000000    -7.507000000
H     1.589000000     1.487000000    -6.252000000
O    -0.709000000    -6.648000000     1.117000000
H    -1.019000000    -5.745000000     1.050000000
H    -0.921000000    -7.038000000     0.268000000
O     2.302000000     6.852000000     1.073000000
H     1.891000000     7.419000000     0.421000000
H     1.733000000     6.083000000     1.115000000
O    -1.110000000     4.126000000     4.624000000
H    -0.985000000     3.182000000     4.526000000
H    -0.233000000     4.496000000     4.523000000
O    -2.223000000     4.789000000     0.249000000
H    -2.965000000     4.334000000    -0.150000000
H    -1.920000000     5.392000000    -0.429000000
O     1.885000000    -4.887000000     1.957000000
H     1.097000000    -4.461000000     1.620000000
H     2.134000000    -4.363000000     2.719000000
O    -4.367000000    -3.331000000     1.804000000
H    -3.421000000    -3.220000000     1.899000000
H    -4.706000000    -3.275000000     2.697000000
O     1.802000000    -8.201000000     1.333000000
H     2.058000000    -7.705000000     2.110000000
H     0.871000000    -8.008000000     1.220000000
O    -1.837000000    -4.382000000    -2.905000000
H    -2.588000000    -4.964000000    -2.787000000
H    -1.150000000    -4.764000000    -2.360000000
O    -5.167000000     0.578000000     2.225000000
H    -4.505000000     0.854000000     2.859000000
H    -5.594000000     1.391000000     1.955000000
O    -2.039000000    -1.304000000     4.321000000
H    -1.157000000    -0.971000000     4.484000000
H    -1.959000000    -1.812000000     3.514000000
O     1.298000000     5.758000000     3.947000000
H     1.130000000     6.052000000     3.052000000
H     2.227000000     5.939000000     4.088000000
O     4.986000000     0.060000000     1.126000000
H     4.992000000    -0.743000000     1.647000000
H     5.233000000    -0.224000000     0.246000000
O    -5.577000000    -1.608000000     0.440000000
H    -5.232000000    -0.813000000     0.846000000
H    -5.184000000    -2.323000000     0.940000000
O     4.071000000     3.228000000    -4.417000000
H     3.894000000     3.663000000    -5.251000000
H     3.674000000     3.798000000    -3.760000000
O     3.566000000    -1.016000000    -4.772000000
H     3.930000000    -0.396000000    -4.141000000
H     2.761000000    -0.598000000    -5.081000000
O     0.568000000    -5.116000000     4.392000000
H    -0.335000000    -4.843000000     4.556000000
H     0.597000000    -5.295000000     3.452000000
O     0.995000000    -0.041000000    -5.210000000
H     0.796000000    -0.223000000    -6.128000000
H     0.833000000    -0.871000000    -4.761000000
O     3.638000000     1.994000000     2.484000000
H     3.945000000     1.382000000     1.816000000
H     4.040000000     2.830000000     2.247000000
O     0.233000000     7.279000000    -3.055000000
H     0.098000000     6.601000000    -3.717000000
H     0.956000000     6.952000000    -2.521000000
O    -1.258000000     3.252000000    -5.020000000
H    -1.275000000     2.469000000    -4.470000000
H    -2.138000000     3.621000000    -4.940000000
O    -0.935000000     1.096000000    -3.453000000
H    -0.101000000     0.900000000    -3.879000000
H    -1.293000000     0.239000000    -3.220000000
O    -4.591000000    -2.409000000     4.728000000
H    -3.850000000    -1.805000000     4.777000000
H    -4.584000000    -2.866000000     5.568000000
O     4.240000000     0.744000000    -2.709000000
H     4.166000000     1.361000000    -3.437000000
H     4.192000000     1.291000000    -1.926000000
O     4.632000000     4.264000000     1.456000000
H     5.432000000     4.469000000     1.939000000
H     4.936000000     4.027000000     0.579000000
O    -2.393000000    -5.495000000     6.348000000
H    -2.263000000    -4.588000000     6.625000000
H    -2.461000000    -5.446000000     5.394000000
O    -0.233000000     5.765000000    -5.226000000
H    -0.501000000     6.024000000    -6.107000000
H    -0.611000000     4.893000000    -5.107000000
O    -1.555000000    -1.443000000    -2.734000000
H    -1.872000000    -2.342000000    -2.651000000
H    -0.880000000    -1.364000000    -2.060000000
O    -2.084000000    -4.845000000     3.675000000
H    -1.835000000    -4.246000000     2.971000000
H    -2.815000000    -5.347000000     3.314000000
O     0.878000000     2.439000000     2.866000000
H     0.852000000     1.487000000     2.964000000
H     1.791000000     2.632000000     2.652000000
O     0.410000000    -2.854000000    -4.159000000
H     0.705000000    -3.736000000    -3.931000000
H    -0.536000000    -2.874000000    -4.018000000
O    -4.545000000    -5.371000000     0.092000000
H    -5.475000000    -5.542000000     0.244000000
H    -4.341000000    -4.635000000     0.669000000
O     2.981000000    -5.046000000    -1.168000000
H     3.842000000    -5.465000000    -1.181000000
H     3.086000000    -4.301000000    -0.577000000
O    -3.283000000     1.095000000     4.312000000
H    -2.884000000     1.901000000     3.984000000
H    -2.688000000     0.400000000     4.029000000
