161
-3021.05077
C     0.918000000    -0.387000000     1.111000000
H     1.613000000    -0.716000000     1.880000000
C     1.361000000    -0.159000000    -0.219000000
H     2.363000000    -0.428000000    -0.546000000
C     0.356000000     0.215000000    -1.201000000
C     0.699000000     0.288000000    -2.677000000
H     1.381000000     1.130000000    -2.812000000
H     1.196000000    -0.650000000    -2.933000000
H    -0.132000000     0.414000000    -3.374000000
C    -0.959000000     0.586000000    -0.756000000
H    -1.730000000     1.048000000    -1.366000000
C    -1.314000000     0.389000000     0.601000000
H    -2.310000000     0.673000000     0.930000000
C    -0.415000000    -0.206000000     1.523000000
C    -0.834000000    -0.576000000     2.940000000
O    -1.838000000    -0.097000000     3.432000000
O    -0.362000000    -1.524000000     3.472000000
O     4.579000000    -1.097000000     4.654000000
H     4.148000000    -1.899000000     4.359000000
H     3.870000000    -0.563000000     5.013000000
O     1.882000000    -2.797000000    -4.233000000
H     1.377000000    -2.045000000    -3.924000000
H     2.638000000    -2.834000000    -3.648000000
O    -4.411000000     3.475000000     6.328000000
H    -4.187000000     4.342000000     5.989000000
H    -4.036000000     2.866000000     5.692000000
O    -1.423000000     3.303000000     0.075000000
H    -1.476000000     3.782000000    -0.752000000
H    -0.988000000     2.481000000    -0.152000000
O     3.588000000     2.412000000    -1.560000000
H     3.359000000     3.240000000    -1.983000000
H     4.541000000     2.439000000    -1.479000000
O     1.538000000    -4.171000000    -0.258000000
H     2.387000000    -3.990000000    -0.660000000
H     1.720000000    -4.853000000     0.389000000
O    -4.011000000     4.042000000     0.772000000
H    -3.160000000     3.775000000     0.425000000
H    -4.438000000     4.490000000     0.042000000
O     0.237000000     3.218000000     5.378000000
H    -0.188000000     3.307000000     4.525000000
H     0.439000000     4.116000000     5.640000000
O    -1.486000000     3.296000000     2.894000000
H    -1.229000000     3.451000000     1.985000000
H    -2.246000000     2.719000000     2.833000000
O    -5.558000000     2.475000000    -1.250000000
H    -5.798000000     2.341000000    -2.167000000
H    -5.069000000     3.298000000    -1.248000000
O     2.566000000    -2.477000000     6.923000000
H     1.692000000    -2.231000000     6.620000000
H     3.160000000    -1.925000000     6.414000000
O     3.014000000    -3.608000000     3.663000000
H     2.967000000    -4.320000000     3.025000000
H     2.142000000    -3.214000000     3.647000000
O    -5.481000000    -2.239000000     2.151000000
H    -5.114000000    -1.706000000     1.446000000
H    -6.298000000    -2.583000000     1.791000000
O     5.785000000    -3.822000000     1.168000000
H     5.496000000    -4.734000000     1.167000000
H     5.238000000    -3.396000000     0.508000000
O    -2.435000000    -1.643000000     7.629000000
H    -1.683000000    -1.972000000     7.137000000
H    -3.030000000    -1.303000000     6.960000000
O    -4.778000000     0.304000000     0.474000000
H    -4.225000000    -0.235000000    -0.092000000
H    -4.734000000     1.179000000     0.088000000
O    -1.910000000     0.135000000    -5.477000000
H    -1.364000000    -0.522000000    -5.911000000
H    -2.287000000    -0.325000000    -4.727000000
O     0.938000000     4.600000000    -4.772000000
H     0.641000000     5.409000000    -5.190000000
H     1.094000000     4.845000000    -3.860000000
O    -4.387000000     0.619000000     3.285000000
H    -3.552000000     0.157000000     3.217000000
H    -4.726000000     0.635000000     2.390000000
O     1.893000000     3.633000000     0.508000000
H     1.885000000     2.730000000     0.190000000
H     1.928000000     3.551000000     1.461000000
O     4.969000000    -1.060000000    -6.382000000
H     5.817000000    -0.678000000    -6.159000000
H     4.443000000    -0.957000000    -5.589000000
O    -3.807000000    -2.065000000    -0.294000000
H    -2.941000000    -2.251000000     0.069000000
H    -3.917000000    -2.709000000    -0.993000000
O     1.884000000     0.609000000    -7.282000000
H     1.310000000     1.134000000    -6.724000000
H     2.552000000     0.270000000    -6.686000000
O     0.693000000     1.271000000     6.941000000
H     0.454000000     1.923000000     6.282000000
H     1.284000000     1.734000000     7.534000000
O    -5.260000000    -2.628000000     4.834000000
H    -4.337000000    -2.736000000     5.063000000
H    -5.251000000    -2.398000000     3.905000000
O     0.462000000    -4.929000000    -5.146000000
H    -0.365000000    -4.511000000    -4.907000000
H     1.134000000    -4.303000000    -4.876000000
O    -1.169000000    -2.733000000    -0.463000000
H    -0.313000000    -3.158000000    -0.416000000
H    -0.972000000    -1.820000000    -0.676000000
O    -2.573000000     1.236000000     5.782000000
H    -3.420000000     0.820000000     5.943000000
H    -2.286000000     0.877000000     4.942000000
O    -5.007000000    -0.126000000     6.293000000
H    -5.173000000    -0.726000000     5.566000000
H    -5.746000000     0.483000000     6.275000000
O    -0.001000000    -1.545000000     6.167000000
H    -0.240000000    -1.401000000     5.251000000
H    -0.026000000    -0.672000000     6.560000000
O     2.934000000    -3.020000000    -6.790000000
H     2.600000000    -2.890000000    -5.903000000
H     3.737000000    -2.500000000    -6.823000000
O     5.668000000     1.291000000     0.847000000
H     6.259000000     1.612000000     1.529000000
H     6.031000000     1.638000000     0.032000000
O    -2.896000000     2.774000000    -4.665000000
H    -2.664000000     1.869000000    -4.874000000
H    -3.686000000     2.943000000    -5.178000000
O     2.946000000     2.095000000     2.561000000
H     2.954000000     1.667000000     3.417000000
H     3.425000000     1.496000000     1.989000000
O     2.931000000     0.738000000     5.504000000
H     2.092000000     0.854000000     5.951000000
H     3.471000000     1.463000000     5.818000000
O     3.967000000    -3.433000000    -1.127000000
H     3.950000000    -2.499000000    -0.918000000
H     4.316000000    -3.473000000    -2.017000000
O    -2.429000000    -2.878000000     4.652000000
H    -1.969000000    -3.640000000     4.301000000
H    -1.882000000    -2.132000000     4.404000000
O     1.213000000     4.692000000    -2.040000000
H     1.348000000     5.505000000    -1.553000000
H     1.344000000     4.001000000    -1.392000000
O    -1.460000000    -5.309000000     3.592000000
H    -0.900000000    -4.810000000     2.997000000
H    -1.966000000    -5.884000000     3.018000000
O     0.297000000    -3.717000000     2.234000000
H     0.772000000    -3.380000000     1.474000000
H     0.165000000    -2.952000000     2.793000000
O     0.443000000     2.274000000    -5.864000000
H     0.534000000     3.140000000    -5.467000000
H    -0.341000000     1.906000000    -5.456000000
O    -3.235000000    -1.079000000    -3.280000000
H    -3.422000000    -1.724000000    -2.598000000
H    -4.005000000    -0.510000000    -3.289000000
O     3.531000000    -0.424000000    -4.089000000
H     3.109000000     0.424000000    -4.222000000
H     4.305000000    -0.227000000    -3.562000000
O     3.254000000     2.499000000    -4.912000000
H     4.001000000     3.020000000    -5.209000000
H     2.512000000     3.102000000    -4.949000000
O     4.931000000    -0.914000000    -0.571000000
H     4.984000000    -0.067000000    -0.128000000
H     5.843000000    -1.175000000    -0.698000000
O     0.014000000    -1.517000000    -6.591000000
H    -0.356000000    -2.320000000    -6.957000000
H     0.545000000    -1.153000000    -7.300000000
O    -7.503000000     0.331000000     0.902000000
H    -6.603000000     0.612000000     1.067000000
H    -7.416000000    -0.437000000     0.338000000
O    -1.461000000     3.692000000    -2.621000000
H    -0.653000000     3.978000000    -3.047000000
H    -1.988000000     3.325000000    -3.331000000
