161
-3026.33516
C     1.100000000    -0.966000000     0.380000000
H     1.923000000    -1.660000000     0.527000000
C     1.086000000    -0.203000000    -0.741000000
H     1.922000000    -0.266000000    -1.432000000
C     0.043000000     0.755000000    -0.895000000
C     0.054000000     1.621000000    -2.146000000
H    -0.160000000     1.002000000    -3.020000000
H    -0.709000000     2.402000000    -2.165000000
H     1.037000000     1.993000000    -2.441000000
C    -1.047000000     0.888000000    -0.055000000
H    -1.929000000     1.516000000    -0.153000000
C    -1.090000000     0.017000000     1.031000000
H    -1.923000000    -0.032000000     1.728000000
C    -0.024000000    -0.861000000     1.264000000
C    -0.092000000    -1.810000000     2.379000000
O    -1.078000000    -2.010000000     3.022000000
O     0.883000000    -2.380000000     2.719000000
O    -2.300000000    -0.516000000    -3.238000000
H    -3.233000000    -0.327000000    -3.342000000
H    -1.859000000     0.259000000    -3.585000000
O     3.169000000    -0.996000000     3.306000000
H     2.295000000    -1.344000000     3.125000000
H     3.152000000    -0.109000000     2.947000000
O    -1.412000000     1.441000000    -5.597000000
H    -1.951000000     1.059000000    -6.289000000
H    -1.782000000     2.312000000    -5.458000000
O     1.227000000    -2.857000000    -4.099000000
H     1.588000000    -3.005000000    -4.973000000
H     0.385000000    -3.312000000    -4.107000000
O    -4.404000000     1.172000000     3.999000000
H    -4.086000000     1.879000000     3.437000000
H    -3.993000000     0.383000000     3.647000000
O    -4.686000000     4.272000000     2.184000000
H    -5.040000000     3.483000000     1.774000000
H    -3.852000000     3.993000000     2.563000000
O     1.988000000     4.865000000    -2.156000000
H     2.522000000     5.462000000    -1.632000000
H     1.096000000     4.998000000    -1.836000000
O     3.387000000     4.693000000    -5.214000000
H     3.454000000     4.134000000    -4.440000000
H     2.534000000     5.118000000    -5.131000000
O    -3.902000000    -1.160000000     2.760000000
H    -4.661000000    -1.541000000     2.318000000
H    -3.175000000    -1.739000000     2.529000000
O     5.272000000    -2.815000000     3.502000000
H     5.427000000    -2.866000000     4.446000000
H     4.521000000    -2.227000000     3.414000000
O    -0.508000000    -6.095000000     0.255000000
H    -0.265000000    -5.191000000     0.453000000
H    -0.929000000    -6.048000000    -0.603000000
O    -2.578000000     1.707000000     6.064000000
H    -3.374000000     1.311000000     5.709000000
H    -2.000000000     1.804000000     5.308000000
O     2.425000000    -5.947000000     1.141000000
H     1.486000000    -6.050000000     0.991000000
H     2.664000000    -5.169000000     0.637000000
O     1.546000000    -5.966000000     4.976000000
H     1.936000000    -5.299000000     4.411000000
H     2.090000000    -6.742000000     4.841000000
O    -2.169000000    -4.410000000     1.843000000
H    -1.673000000    -3.604000000     1.982000000
H    -1.906000000    -4.981000000     2.565000000
O     1.168000000    -2.276000000     5.276000000
H     0.328000000    -2.424000000     5.711000000
H     0.964000000    -2.314000000     4.341000000
O    -2.268000000     3.353000000     3.265000000
H    -1.517000000     2.880000000     2.906000000
H    -2.012000000     4.274000000     3.225000000
O     1.354000000     1.598000000    -5.472000000
H     1.704000000     2.489000000    -5.488000000
H     0.470000000     1.681000000    -5.830000000
O     2.650000000    -4.166000000     3.160000000
H     2.600000000    -4.825000000     2.468000000
H     1.972000000    -3.530000000     2.935000000
O    -1.243000000    -6.405000000     3.589000000
H    -0.881000000    -7.041000000     2.972000000
H    -0.484000000    -6.085000000     4.076000000
O    -1.847000000    -3.304000000    -3.046000000
H    -1.805000000    -2.347000000    -3.050000000
H    -2.518000000    -3.516000000    -3.694000000
O     1.411000000    -5.260000000    -2.389000000
H     1.961000000    -5.298000000    -3.171000000
H     1.279000000    -4.325000000    -2.234000000
O     1.181000000     6.033000000    -4.570000000
H     0.435000000     5.677000000    -5.051000000
H     1.119000000     5.635000000    -3.702000000
O    -0.691000000     5.085000000    -2.127000000
H    -1.524000000     5.386000000    -2.488000000
H    -0.768000000     5.238000000    -1.185000000
O    -5.501000000     2.224000000     0.626000000
H    -5.556000000     1.283000000     0.459000000
H    -5.787000000     2.630000000    -0.192000000
O     2.623000000    -0.431000000    -3.958000000
H     2.165000000    -1.264000000    -3.841000000
H     1.934000000     0.192000000    -4.185000000
O     1.548000000     2.562000000     4.188000000
H     2.426000000     2.337000000     4.494000000
H     0.991000000     1.856000000     4.516000000
O    -5.378000000    -0.588000000     0.547000000
H    -4.611000000    -0.905000000     0.071000000
H    -5.630000000    -1.320000000     1.110000000
O     0.288000000     5.771000000     0.288000000
H     0.409000000     4.965000000     0.790000000
H     0.773000000     6.435000000     0.779000000
O     5.463000000    -3.004000000     0.665000000
H     5.377000000    -3.003000000     1.619000000
H     6.262000000    -2.505000000     0.497000000
O     4.531000000    -3.468000000    -2.676000000
H     5.030000000    -4.260000000    -2.475000000
H     5.042000000    -2.758000000    -2.287000000
O    -3.084000000    -1.765000000    -0.772000000
H    -2.650000000    -2.604000000    -0.929000000
H    -2.508000000    -1.118000000    -1.179000000
O     2.198000000     0.113000000    -7.620000000
H     1.507000000     0.127000000    -8.282000000
H     1.831000000     0.598000000    -6.880000000
O    -2.811000000    -3.426000000     5.038000000
H    -2.471000000    -2.844000000     4.359000000
H    -3.375000000    -4.040000000     4.568000000
O    -4.822000000    -1.377000000     5.822000000
H    -4.400000000    -2.024000000     5.257000000
H    -4.919000000    -0.602000000     5.268000000
O    -0.186000000     0.493000000     5.181000000
H    -0.768000000    -0.014000000     4.615000000
H    -0.188000000     0.019000000     6.013000000
O     3.865000000     3.250000000    -3.007000000
H     3.739000000     2.344000000    -2.727000000
H     3.184000000     3.740000000    -2.545000000
O     0.191000000     3.209000000     1.733000000
H     0.834000000     2.913000000     2.378000000
H     0.212000000     2.539000000     1.050000000
O     3.625000000    -1.515000000     5.897000000
H     2.732000000    -1.826000000     5.747000000
H     3.868000000    -1.082000000     5.078000000
O    -4.574000000    -5.048000000     0.595000000
H    -4.814000000    -5.428000000     1.440000000
H    -3.738000000    -4.610000000     0.757000000
O     3.015000000    -3.692000000    -0.341000000
H     3.830000000    -3.335000000     0.012000000
H     3.041000000    -3.472000000    -1.273000000
O    -0.085000000     4.473000000    -6.569000000
H    -0.871000000     4.180000000    -6.110000000
H    -0.123000000     4.031000000    -7.417000000
O    -4.892000000     0.467000000    -3.156000000
H    -5.197000000     0.484000000    -2.249000000
H    -5.289000000     1.240000000    -3.556000000
O    -2.463000000     3.922000000    -5.363000000
H    -2.505000000     4.724000000    -4.843000000
H    -3.366000000     3.607000000    -5.393000000
O     5.726000000     0.345000000    -0.352000000
H     5.322000000    -0.126000000    -1.081000000
H     6.526000000    -0.145000000    -0.165000000
O     4.898000000    -0.459000000    -2.713000000
H     5.479000000    -0.283000000    -3.454000000
H     4.023000000    -0.498000000    -3.099000000
O    -1.133000000    -2.782000000     7.181000000
H    -1.361000000    -3.365000000     7.905000000
H    -1.779000000    -2.978000000     6.502000000
O     3.500000000     1.585000000     0.704000000
H     4.117000000     1.137000000     0.126000000
H     2.639000000     1.281000000     0.416000000
