161
-3050.12507
C    -1.333000000     0.336000000     0.581000000
H    -2.233000000     0.838000000     0.928000000
C    -0.751000000     0.971000000    -0.518000000
H    -1.202000000     1.835000000    -0.999000000
C     0.476000000     0.459000000    -1.034000000
C     1.108000000     1.192000000    -2.207000000
H     0.694000000     2.180000000    -2.416000000
H     2.128000000     1.480000000    -1.946000000
H     1.251000000     0.556000000    -3.083000000
C     1.016000000    -0.665000000    -0.454000000
H     1.888000000    -1.088000000    -0.947000000
C     0.489000000    -1.249000000     0.690000000
H     0.943000000    -2.125000000     1.147000000
C    -0.678000000    -0.735000000     1.250000000
C    -1.177000000    -1.234000000     2.590000000
O    -0.668000000    -2.173000000     3.123000000
O    -1.949000000    -0.586000000     3.290000000
O     0.711000000    -5.127000000    -1.945000000
H    -0.191000000    -5.237000000    -1.645000000
H     0.696000000    -4.320000000    -2.460000000
O     0.472000000    -3.237000000    -4.064000000
H    -0.282000000    -3.647000000    -4.488000000
H     0.167000000    -2.361000000    -3.827000000
O    -0.715000000     1.628000000     4.007000000
H    -1.159000000     0.786000000     3.902000000
H     0.174000000     1.471000000     3.687000000
O    -0.181000000     0.563000000     6.575000000
H     0.008000000     1.233000000     5.918000000
H     0.312000000     0.839000000     7.347000000
O     2.782000000    -3.944000000     0.058000000
H     2.065000000    -4.565000000     0.192000000
H     2.928000000    -3.949000000    -0.888000000
O     6.222000000    -0.933000000    -0.951000000
H     6.772000000    -0.934000000    -1.735000000
H     6.515000000    -0.169000000    -0.454000000
O     5.077000000     1.946000000    -1.416000000
H     4.395000000     1.703000000    -0.789000000
H     5.406000000     2.787000000    -1.098000000
O     2.928000000     0.837000000     5.130000000
H     2.028000000     0.514000000     5.086000000
H     3.429000000     0.225000000     4.591000000
O     2.543000000    -4.318000000     6.428000000
H     1.974000000    -5.018000000     6.746000000
H     2.031000000    -3.884000000     5.745000000
O     0.183000000     4.259000000     2.320000000
H    -0.411000000     4.331000000     3.067000000
H    -0.068000000     3.440000000     1.893000000
O     3.980000000     1.322000000     1.043000000
H     4.458000000     1.510000000     1.851000000
H     4.187000000     0.407000000     0.851000000
O     2.971000000     0.415000000    -5.596000000
H     3.593000000    -0.276000000    -5.370000000
H     2.115000000     0.048000000    -5.375000000
O    -4.230000000    -1.357000000    -2.871000000
H    -4.009000000    -0.445000000    -2.682000000
H    -4.495000000    -1.354000000    -3.791000000
O     6.378000000     3.314000000    -3.885000000
H     6.017000000     2.585000000    -3.380000000
H     7.144000000     3.595000000    -3.384000000
O    -4.240000000     0.732000000     2.460000000
H    -3.455000000     0.384000000     2.884000000
H    -4.920000000     0.085000000     2.647000000
O     3.226000000    -3.051000000    -3.824000000
H     2.288000000    -2.925000000    -3.684000000
H     3.423000000    -3.884000000    -3.397000000
O     4.248000000    -1.771000000     4.398000000
H     4.943000000    -2.360000000     4.691000000
H     3.448000000    -2.292000000     4.465000000
O    -3.767000000     1.479000000    -2.638000000
H    -3.902000000     2.164000000    -1.984000000
H    -2.947000000     1.717000000    -3.069000000
O    -0.326000000    -2.016000000     5.974000000
H    -0.497000000    -2.053000000     5.033000000
H    -0.469000000    -1.099000000     6.207000000
O    -1.430000000     2.371000000    -4.459000000
H    -1.713000000     3.247000000    -4.197000000
H    -1.903000000     2.201000000    -5.274000000
O    -4.362000000     1.516000000     7.104000000
H    -4.003000000     0.834000000     6.536000000
H    -3.719000000     1.606000000     7.807000000
O    -1.992000000    -5.192000000    -1.250000000
H    -2.053000000    -4.258000000    -1.450000000
H    -2.888000000    -5.515000000    -1.339000000
O     4.226000000    -1.469000000     1.207000000
H     4.940000000    -1.740000000     0.630000000
H     3.623000000    -2.213000000     1.209000000
O     0.415000000    -0.909000000    -5.894000000
H     0.696000000    -1.811000000    -6.050000000
H     0.161000000    -0.584000000    -6.758000000
O     1.265000000     3.848000000    -6.203000000
H     0.518000000     3.267000000    -6.062000000
H     1.815000000     3.723000000    -5.430000000
O    -0.523000000    -2.766000000     8.468000000
H    -0.130000000    -2.639000000     7.604000000
H    -1.455000000    -2.598000000     8.334000000
O    -4.466000000    -2.769000000    -0.598000000
H    -4.344000000    -2.171000000    -1.335000000
H    -3.658000000    -2.692000000    -0.091000000
O    -1.924000000    -2.169000000    -1.442000000
H    -2.510000000    -1.756000000    -2.077000000
H    -1.333000000    -1.467000000    -1.170000000
O    -2.932000000    -6.329000000     1.688000000
H    -2.019000000    -6.536000000     1.487000000
H    -3.013000000    -5.394000000     1.499000000
O    -3.369000000     4.040000000    -1.052000000
H    -3.816000000     3.411000000    -0.486000000
H    -4.065000000     4.408000000    -1.597000000
O     1.915000000    -3.256000000     3.863000000
H     1.819000000    -4.172000000     3.602000000
H     1.035000000    -2.889000000     3.779000000
O    -3.412000000    -3.302000000     2.443000000
H    -3.764000000    -3.881000000     3.119000000
H    -3.211000000    -2.488000000     2.905000000
O    -3.391000000    -0.561000000     5.592000000
H    -2.937000000    -0.495000000     4.752000000
H    -4.077000000    -1.213000000     5.443000000
O    -1.073000000     5.595000000    -1.754000000
H    -0.891000000     5.274000000    -2.637000000
H    -1.847000000     5.106000000    -1.475000000
O    -0.927000000     4.110000000     4.734000000
H    -1.827000000     4.311000000     4.989000000
H    -0.878000000     3.154000000     4.763000000
O     4.296000000     5.219000000    -4.340000000
H     4.989000000     4.647000000    -4.009000000
H     3.641000000     5.230000000    -3.642000000
O     2.840000000     5.347000000    -1.822000000
H     2.411000000     5.038000000    -1.024000000
H     3.466000000     6.004000000    -1.518000000
O    -5.601000000    -1.129000000     3.529000000
H    -6.283000000    -1.166000000     4.198000000
H    -5.858000000    -1.792000000     2.888000000
O    -1.665000000    -0.533000000    -4.103000000
H    -1.096000000    -0.754000000    -4.840000000
H    -1.377000000     0.339000000    -3.831000000
O     5.015000000     0.116000000    -3.158000000
H     4.827000000    -0.718000000    -2.728000000
H     4.781000000     0.779000000    -2.509000000
O     1.554000000    -5.956000000     3.230000000
H     1.203000000    -6.601000000     3.845000000
H     1.839000000    -6.474000000     2.477000000
O    -0.523000000    -4.669000000     1.728000000
H     0.070000000    -5.034000000     2.385000000
H    -0.600000000    -3.744000000     1.963000000
O    -4.703000000     2.302000000     0.226000000
H    -5.115000000     1.450000000     0.083000000
H    -4.341000000     2.249000000     1.110000000
O     1.439000000     1.588000000     2.361000000
H     1.059000000     1.087000000     1.639000000
H     2.350000000     1.728000000     2.101000000
O    -5.940000000     2.489000000     4.423000000
H    -5.046000000     2.163000000     4.322000000
H    -6.033000000     3.149000000     3.736000000
O    -1.189000000     5.208000000    -4.496000000
H    -1.968000000     5.746000000    -4.354000000
H    -0.632000000     5.739000000    -5.066000000
O     0.807000000     6.182000000    -0.023000000
H     0.531000000     5.480000000     0.567000000
H     0.126000000     6.213000000    -0.694000000
O    -2.135000000    -4.045000000     4.898000000
H    -1.833000000    -3.352000000     5.485000000
H    -1.757000000    -3.820000000     4.048000000
