161
-3078.66774
C    -0.615000000    -0.736000000     1.098000000
H    -1.033000000    -1.191000000     1.992000000
C    -1.151000000     0.428000000     0.549000000
H    -2.083000000     0.920000000     0.814000000
C    -0.494000000     1.004000000    -0.615000000
C    -1.064000000     2.281000000    -1.154000000
H    -2.111000000     2.387000000    -0.864000000
H    -0.524000000     3.122000000    -0.714000000
H    -1.082000000     2.320000000    -2.245000000
C     0.699000000     0.430000000    -1.058000000
H     1.179000000     0.728000000    -1.987000000
C     1.268000000    -0.656000000    -0.382000000
H     2.214000000    -1.074000000    -0.717000000
C     0.638000000    -1.262000000     0.721000000
C     1.265000000    -2.500000000     1.402000000
O     2.342000000    -3.011000000     1.088000000
O     0.554000000    -3.191000000     2.069000000
O     1.667000000    -5.413000000    -1.775000000
H     1.640000000    -5.657000000    -0.849000000
H     1.353000000    -4.509000000    -1.794000000
O     2.049000000     1.552000000    -5.454000000
H     1.655000000     1.427000000    -6.318000000
H     2.316000000     0.673000000    -5.184000000
O     1.048000000     4.578000000     4.254000000
H     0.499000000     4.302000000     3.520000000
H     0.908000000     3.909000000     4.924000000
O    -3.343000000    -4.733000000     4.850000000
H    -3.354000000    -4.497000000     5.778000000
H    -2.534000000    -4.346000000     4.515000000
O     0.914000000    -0.035000000     5.324000000
H     0.110000000     0.176000000     4.850000000
H     1.563000000    -0.191000000     4.637000000
O     4.059000000    -4.133000000    -0.372000000
H     3.322000000    -3.814000000     0.150000000
H     4.143000000    -5.055000000    -0.130000000
O     0.059000000    -0.901000000    -5.524000000
H    -0.352000000    -1.724000000    -5.258000000
H     0.985000000    -1.016000000    -5.311000000
O     2.671000000    -4.279000000     3.726000000
H     2.499000000    -3.841000000     2.893000000
H     1.840000000    -4.697000000     3.953000000
O     3.650000000    -6.240000000     5.019000000
H     3.293000000    -5.352000000     5.021000000
H     3.291000000    -6.645000000     5.808000000
O     2.388000000     0.104000000     2.759000000
H     1.905000000     0.475000000     2.020000000
H     3.083000000    -0.416000000     2.355000000
O    -4.558000000    -1.822000000     1.649000000
H    -4.490000000    -0.996000000     2.129000000
H    -3.695000000    -1.939000000     1.251000000
O     1.480000000    -5.747000000     0.862000000
H     2.090000000    -6.376000000     1.247000000
H     1.693000000    -4.916000000     1.289000000
O    -2.700000000    -2.664000000    -0.494000000
H    -3.465000000    -2.885000000    -1.024000000
H    -2.428000000    -1.804000000    -0.813000000
O     5.008000000    -0.762000000    -0.845000000
H     5.956000000    -0.883000000    -0.792000000
H     4.678000000    -1.079000000    -0.005000000
O     1.630000000     3.116000000     0.885000000
H     2.302000000     3.591000000     1.374000000
H     2.012000000     2.988000000     0.017000000
O     5.528000000    -3.971000000     3.116000000
H     5.958000000    -3.967000000     3.971000000
H     4.592000000    -3.965000000     3.319000000
O    -0.994000000    -4.337000000    -2.220000000
H    -0.492000000    -5.125000000    -2.012000000
H    -1.495000000    -4.155000000    -1.425000000
O     4.158000000     0.387000000    -3.371000000
H     4.508000000     1.277000000    -3.361000000
H     4.576000000    -0.044000000    -2.625000000
O    -4.824000000     6.622000000     0.332000000
H    -4.869000000     5.850000000    -0.232000000
H    -5.737000000     6.881000000     0.456000000
O     4.289000000    -6.460000000     1.574000000
H     4.433000000    -7.403000000     1.499000000
H     4.399000000    -6.274000000     2.507000000
O    -4.783000000     1.666000000    -2.533000000
H    -4.646000000     1.490000000    -3.464000000
H    -4.404000000     0.908000000    -2.088000000
O    -3.209000000    -6.476000000     2.810000000
H    -2.673000000    -5.856000000     2.316000000
H    -3.210000000    -6.133000000     3.703000000
O    -2.296000000     5.217000000    -1.916000000
H    -1.921000000     6.049000000    -2.205000000
H    -1.654000000     4.866000000    -1.299000000
O    -0.984000000    -3.244000000     4.135000000
H    -1.015000000    -2.431000000     4.640000000
H    -0.330000000    -3.079000000     3.456000000
O     2.583000000    -1.118000000    -4.894000000
H     3.153000000    -0.489000000    -4.453000000
H     3.012000000    -1.964000000    -4.764000000
O     4.518000000    -1.662000000     1.683000000
H     3.769000000    -2.252000000     1.769000000
H     5.282000000    -2.234000000     1.754000000
O    -4.114000000     0.768000000    -5.198000000
H    -4.089000000    -0.175000000    -5.033000000
H    -3.202000000     1.006000000    -5.364000000
O    -1.519000000     0.894000000     4.027000000
H    -1.213000000     1.505000000     3.357000000
H    -2.436000000     0.732000000     3.803000000
O    -0.824000000    -7.445000000     0.988000000
H     0.106000000    -7.281000000     0.831000000
H    -1.235000000    -6.584000000     0.914000000
O    -0.826000000     3.021000000     2.596000000
H    -0.246000000     2.737000000     1.890000000
H    -1.247000000     3.811000000     2.258000000
O    -2.172000000     5.244000000     2.382000000
H    -3.092000000     5.022000000     2.526000000
H    -1.948000000     5.821000000     3.112000000
O    -6.537000000    -0.585000000     0.060000000
H    -7.002000000    -1.362000000    -0.251000000
H    -5.753000000    -0.931000000     0.486000000
O    -4.907000000     4.504000000    -1.408000000
H    -4.001000000     4.657000000    -1.678000000
H    -5.126000000     3.650000000    -1.779000000
O    -5.202000000     2.110000000     0.659000000
H    -4.919000000     2.987000000     0.400000000
H    -5.860000000     1.868000000     0.007000000
O    -1.412000000     1.675000000    -5.309000000
H    -0.783000000     1.015000000    -5.601000000
H    -0.884000000     2.315000000    -4.831000000
O    -0.491000000     5.840000000     0.320000000
H     0.145000000     6.298000000     0.868000000
H    -1.198000000     5.602000000     0.920000000
O     0.592000000    -5.195000000     5.385000000
H     0.539000000    -4.996000000     6.319000000
H     0.054000000    -4.524000000     4.966000000
O    -3.381000000     5.471000000    -4.695000000
H    -4.333000000     5.377000000    -4.694000000
H    -3.081000000     4.879000000    -4.006000000
O    -0.334000000     5.801000000    -4.909000000
H    -1.229000000     5.464000000    -4.880000000
H     0.209000000     5.065000000    -4.625000000
O     4.151000000    -2.733000000    -2.815000000
H     4.049000000    -3.354000000    -2.095000000
H     4.289000000    -1.888000000    -2.386000000
O     0.547000000     3.350000000    -3.832000000
H     0.871000000     3.685000000    -2.996000000
H     1.295000000     2.892000000    -4.214000000
O    -2.370000000    -0.562000000    -2.755000000
H    -1.495000000    -0.881000000    -2.975000000
H    -2.223000000     0.315000000    -2.400000000
O    -4.339000000     0.887000000     2.839000000
H    -4.578000000     1.358000000     2.040000000
H    -4.780000000     1.367000000     3.540000000
O     4.395000000     1.133000000     4.136000000
H     3.648000000     0.663000000     3.767000000
H     4.191000000     2.058000000     3.995000000
O     1.332000000     4.782000000    -1.648000000
H     0.800000000     4.830000000    -0.853000000
H     2.177000000     5.152000000    -1.393000000
O     4.118000000     3.428000000    -0.444000000
H     4.330000000     2.925000000    -1.231000000
H     4.836000000     3.239000000     0.161000000
O    -0.738000000    -1.718000000     6.845000000
H    -1.418000000    -1.076000000     7.050000000
H    -0.107000000    -1.236000000     6.309000000
O    -1.841000000    -4.813000000     1.067000000
H    -1.104000000    -4.267000000     1.341000000
H    -2.400000000    -4.224000000     0.560000000
