161
-3065.51214
C    -0.598000000    -1.339000000     0.473000000
H    -1.143000000    -2.230000000     0.774000000
C    -1.324000000    -0.293000000    -0.178000000
H    -2.404000000    -0.323000000    -0.294000000
C    -0.688000000     0.897000000    -0.467000000
C    -1.432000000     2.075000000    -1.078000000
H    -1.918000000     1.752000000    -2.000000000
H    -2.167000000     2.517000000    -0.402000000
H    -0.665000000     2.779000000    -1.409000000
C     0.671000000     1.064000000    -0.305000000
H     1.301000000     1.908000000    -0.574000000
C     1.361000000     0.061000000     0.330000000
H     2.434000000     0.123000000     0.494000000
C     0.791000000    -1.200000000     0.651000000
C     1.663000000    -2.293000000     1.218000000
O     2.885000000    -2.138000000     1.274000000
O     1.241000000    -3.358000000     1.485000000
O    -4.734000000     1.941000000    -3.631000000
H    -3.844000000     2.097000000    -3.949000000
H    -4.614000000     1.450000000    -2.818000000
O     5.019000000    -4.620000000     0.406000000
H     4.747000000    -5.383000000    -0.103000000
H     4.627000000    -3.875000000    -0.050000000
O    -5.110000000    -2.333000000     1.058000000
H    -5.957000000    -2.669000000     1.351000000
H    -4.765000000    -3.018000000     0.486000000
O     0.434000000     1.128000000     3.485000000
H     0.172000000     0.359000000     2.978000000
H     0.433000000     1.844000000     2.850000000
O     5.432000000     2.293000000     1.491000000
H     5.439000000     3.053000000     2.073000000
H     6.147000000     1.742000000     1.808000000
O     3.031000000     3.789000000     2.794000000
H     3.232000000     2.987000000     3.275000000
H     2.119000000     3.685000000     2.524000000
O     3.620000000    -2.701000000     3.706000000
H     3.293000000    -2.069000000     4.346000000
H     3.312000000    -2.370000000     2.863000000
O     3.110000000     3.308000000    -2.387000000
H     3.790000000     2.906000000    -1.846000000
H     3.171000000     4.243000000    -2.191000000
O    -1.667000000    -5.951000000    -1.307000000
H    -1.030000000    -5.402000000    -1.764000000
H    -1.179000000    -6.740000000    -1.072000000
O     3.003000000    -5.401000000     1.961000000
H     2.582000000    -4.542000000     1.949000000
H     3.935000000    -5.212000000     1.849000000
O    -3.332000000    -4.442000000     2.567000000
H    -3.872000000    -4.385000000     3.355000000
H    -2.569000000    -3.898000000     2.760000000
O     0.165000000    -6.758000000     3.906000000
H    -0.211000000    -7.457000000     4.442000000
H     1.100000000    -6.777000000     4.109000000
O     3.760000000     0.599000000    -3.648000000
H     3.772000000     1.491000000    -3.300000000
H     4.263000000     0.088000000    -3.015000000
O     1.404000000     0.729000000    -5.194000000
H     2.156000000     0.542000000    -4.631000000
H     0.956000000     1.456000000    -4.762000000
O    -3.542000000     4.535000000    -2.747000000
H    -4.151000000     4.747000000    -3.454000000
H    -3.165000000     3.692000000    -3.000000000
O     1.641000000    -6.919000000    -2.631000000
H     1.715000000    -6.326000000    -1.884000000
H     1.637000000    -6.342000000    -3.395000000
O    -2.077000000     2.388000000    -4.192000000
H    -1.220000000     2.143000000    -3.843000000
H    -1.923000000     2.533000000    -5.126000000
O     0.644000000     2.913000000    -3.898000000
H     0.895000000     3.560000000    -4.558000000
H     1.185000000     3.125000000    -3.138000000
O     0.439000000    -2.529000000     5.984000000
H     1.233000000    -2.143000000     5.614000000
H     0.311000000    -3.336000000     5.486000000
O    -1.199000000     7.940000000    -0.873000000
H    -0.590000000     8.090000000    -0.150000000
H    -0.889000000     7.133000000    -1.284000000
O    -0.281000000    -3.914000000     3.529000000
H    -0.091000000    -4.849000000     3.594000000
H     0.206000000    -3.623000000     2.758000000
O    -0.330000000    -1.815000000    -4.635000000
H    -1.230000000    -1.508000000    -4.528000000
H     0.141000000    -1.060000000    -4.987000000
O    -2.549000000    -0.782000000    -3.742000000
H    -3.216000000    -1.389000000    -3.423000000
H    -2.749000000     0.046000000    -3.305000000
O    -4.407000000     0.545000000    -1.430000000
H    -5.343000000     0.444000000    -1.255000000
H    -4.020000000     0.715000000    -0.571000000
O     4.629000000    -4.689000000     5.341000000
H     4.208000000    -4.510000000     6.183000000
H     4.238000000    -4.055000000     4.739000000
O     5.543000000    -1.290000000     1.357000000
H     4.634000000    -1.584000000     1.307000000
H     5.820000000    -1.519000000     2.245000000
O    -5.126000000     5.798000000     1.476000000
H    -4.457000000     5.967000000     0.813000000
H    -5.567000000     5.004000000     1.175000000
O     0.208000000     4.123000000     2.035000000
H    -0.720000000     4.000000000     1.837000000
H     0.519000000     4.730000000     1.363000000
O     5.228000000     2.307000000    -1.179000000
H     5.417000000     1.383000000    -1.340000000
H     5.269000000     2.397000000    -0.227000000
O    -4.275000000     2.876000000     3.654000000
H    -4.736000000     3.623000000     4.035000000
H    -4.379000000     2.176000000     4.299000000
O    -1.582000000     2.883000000     4.718000000
H    -0.759000000     2.398000000     4.653000000
H    -1.934000000     2.878000000     3.828000000
O    -1.651000000     6.862000000    -3.952000000
H    -1.064000000     6.335000000    -3.411000000
H    -2.442000000     6.961000000    -3.421000000
O    -4.946000000     3.587000000    -0.570000000
H    -4.798000000     2.672000000    -0.809000000
H    -4.795000000     4.073000000    -1.380000000
O     0.646000000     6.245000000    -2.509000000
H     1.458000000     6.192000000    -3.013000000
H     0.898000000     5.986000000    -1.622000000
O    -4.611000000    -2.262000000    -2.180000000
H    -4.560000000    -1.612000000    -1.480000000
H    -3.917000000    -2.889000000    -1.976000000
O     6.175000000    -2.653000000     3.664000000
H     6.388000000    -2.118000000     4.428000000
H     5.265000000    -2.918000000     3.802000000
O    -3.625000000     6.820000000    -0.459000000
H    -2.770000000     7.250000000    -0.425000000
H    -3.712000000     6.530000000    -1.367000000
O    -2.440000000    -2.781000000     4.495000000
H    -1.631000000    -3.141000000     4.131000000
H    -2.189000000    -1.920000000     4.829000000
O     2.279000000    -0.828000000     5.154000000
H     1.698000000    -0.154000000     4.802000000
H     2.567000000    -0.480000000     5.998000000
O    -4.576000000     0.336000000    -6.389000000
H    -4.248000000     0.844000000    -5.647000000
H    -5.086000000    -0.369000000    -5.991000000
O     5.510000000    -0.436000000    -1.643000000
H     5.154000000    -1.046000000    -0.996000000
H     6.437000000    -0.666000000    -1.705000000
O    -3.379000000    -3.985000000    -0.327000000
H    -2.574000000    -4.386000000    -0.655000000
H    -3.469000000    -4.323000000     0.564000000
O     3.973000000     1.064000000     3.360000000
H     3.595000000     0.255000000     3.017000000
H     4.460000000     1.432000000     2.622000000
O     2.931000000    -6.658000000     4.292000000
H     3.033000000    -6.188000000     3.465000000
H     3.511000000    -6.200000000     4.901000000
O    -2.427000000     3.721000000     2.019000000
H    -2.997000000     3.715000000     1.250000000
H    -2.954000000     3.325000000     2.712000000
O    -4.803000000     0.519000000     1.372000000
H    -4.752000000     0.774000000     2.293000000
H    -4.769000000    -0.438000000     1.387000000
O    -1.976000000    -6.650000000     1.869000000
H    -2.610000000    -6.018000000     2.208000000
H    -1.190000000    -6.507000000     2.398000000
O     1.334000000    -5.504000000    -0.265000000
H     1.843000000    -6.069000000     0.316000000
H     0.971000000    -4.832000000     0.312000000
