161
-3070.36799
C    -0.784000000    -1.079000000     0.577000000
H    -1.354000000    -1.945000000     0.901000000
C    -1.207000000    -0.212000000    -0.446000000
H    -2.052000000    -0.494000000    -1.069000000
C    -0.420000000     0.840000000    -0.855000000
C    -0.824000000     1.688000000    -2.044000000
H    -1.905000000     1.839000000    -2.052000000
H    -0.311000000     2.646000000    -2.154000000
H    -0.625000000     1.079000000    -2.928000000
C     0.794000000     1.046000000    -0.166000000
H     1.387000000     1.902000000    -0.478000000
C     1.253000000     0.159000000     0.823000000
H     2.102000000     0.244000000     1.497000000
C     0.457000000    -0.931000000     1.217000000
C     0.981000000    -1.980000000     2.213000000
O     2.134000000    -1.792000000     2.577000000
O     0.380000000    -3.007000000     2.394000000
O    -4.223000000    -6.068000000    -0.334000000
H    -4.023000000    -6.926000000    -0.709000000
H    -3.404000000    -5.578000000    -0.406000000
O    -4.145000000     2.702000000    -3.506000000
H    -4.249000000     3.642000000    -3.357000000
H    -5.024000000     2.342000000    -3.385000000
O     1.285000000    -8.024000000     1.957000000
H     1.149000000    -7.187000000     2.401000000
H     1.745000000    -8.564000000     2.600000000
O     3.371000000    -3.799000000    -0.618000000
H     3.702000000    -4.142000000    -1.447000000
H     4.078000000    -3.244000000    -0.288000000
O    -2.421000000     1.470000000     1.867000000
H    -3.143000000     1.376000000     1.246000000
H    -1.921000000     0.658000000     1.778000000
O     5.624000000     0.983000000    -0.205000000
H     6.551000000     1.062000000     0.016000000
H     5.171000000     1.043000000     0.636000000
O     3.632000000     4.032000000     0.216000000
H     2.737000000     4.334000000     0.370000000
H     3.953000000     3.781000000     1.083000000
O     2.821000000    -2.974000000     4.675000000
H     2.625000000    -2.272000000     5.295000000
H     2.519000000    -2.640000000     3.831000000
O     1.063000000     4.746000000    -1.018000000
H     1.608000000     4.096000000    -1.461000000
H     0.408000000     4.994000000    -1.670000000
O    -1.628000000    -2.767000000    -3.237000000
H    -2.182000000    -1.999000000    -3.380000000
H    -0.808000000    -2.557000000    -3.684000000
O     2.184000000    -5.289000000     2.831000000
H     1.548000000    -4.590000000     2.985000000
H     2.313000000    -5.289000000     1.882000000
O     3.268000000     5.006000000    -3.369000000
H     3.487000000     5.909000000    -3.137000000
H     3.986000000     4.486000000    -3.009000000
O     0.987000000    -1.911000000    -4.331000000
H     1.518000000    -2.699000000    -4.220000000
H     1.553000000    -1.198000000    -4.034000000
O     4.877000000     3.198000000    -1.935000000
H     4.440000000     3.530000000    -1.151000000
H     5.113000000     2.297000000    -1.714000000
O    -0.464000000     4.032000000    -6.267000000
H     0.419000000     4.380000000    -6.140000000
H    -0.327000000     3.166000000    -6.650000000
O    -1.765000000    -4.543000000    -1.090000000
H    -1.064000000    -4.944000000    -0.576000000
H    -1.314000000    -3.929000000    -1.671000000
O     1.897000000    -1.338000000     7.095000000
H     1.570000000    -0.714000000     6.447000000
H     1.205000000    -1.996000000     7.164000000
O    -2.969000000     2.482000000    -6.125000000
H    -3.335000000     2.304000000    -5.258000000
H    -2.202000000     3.028000000    -5.953000000
O    -0.663000000     5.421000000    -3.035000000
H    -0.588000000     6.367000000    -3.160000000
H    -1.368000000     5.156000000    -3.624000000
O    -0.503000000    -3.326000000     5.197000000
H    -1.417000000    -3.305000000     4.911000000
H    -0.024000000    -2.880000000     4.499000000
O     1.133000000     7.180000000     0.237000000
H     0.453000000     7.546000000    -0.329000000
H     1.213000000     6.268000000    -0.044000000
O    -2.283000000    -4.056000000     2.883000000
H    -2.462000000    -4.989000000     2.771000000
H    -1.389000000    -3.943000000     2.560000000
O    -3.349000000    -0.268000000    -6.511000000
H    -2.955000000     0.572000000    -6.749000000
H    -3.254000000    -0.316000000    -5.560000000
O     5.770000000    -1.778000000    -0.573000000
H     5.553000000    -0.858000000    -0.421000000
H     6.244000000    -2.045000000     0.214000000
O    -3.057000000    -0.322000000    -3.870000000
H    -2.599000000     0.413000000    -3.463000000
H    -3.966000000    -0.224000000    -3.588000000
O     5.022000000    -1.632000000     2.345000000
H     4.084000000    -1.795000000     2.246000000
H     5.429000000    -2.488000000     2.216000000
O    -2.808000000     5.334000000    -0.835000000
H    -2.513000000     6.194000000    -0.536000000
H    -2.230000000     4.714000000    -0.391000000
O     1.996000000     2.618000000    -4.685000000
H     2.123000000     1.899000000    -4.065000000
H     2.270000000     3.399000000    -4.205000000
O    -3.030000000     2.066000000     4.346000000
H    -3.405000000     2.880000000     4.010000000
H    -2.534000000     1.708000000     3.610000000
O    -4.461000000     5.492000000    -3.238000000
H    -3.901000000     5.578000000    -4.009000000
H    -3.851000000     5.403000000    -2.507000000
O    -1.004000000     3.828000000     1.364000000
H    -1.710000000     3.672000000     1.991000000
H    -0.771000000     2.956000000     1.045000000
O    -5.398000000    -0.603000000    -2.249000000
H    -4.917000000    -1.332000000    -1.858000000
H    -6.216000000    -0.563000000    -1.753000000
O    -5.255000000    -1.127000000     1.326000000
H    -5.064000000    -1.878000000     0.765000000
H    -4.908000000    -0.374000000     0.847000000
O     6.566000000    -0.102000000     3.925000000
H     5.834000000     0.317000000     4.377000000
H     6.179000000    -0.872000000     3.507000000
O     1.517000000     4.436000000     2.282000000
H     0.633000000     4.477000000     1.917000000
H     1.492000000     3.696000000     2.888000000
O     0.639000000     0.495000000     5.498000000
H     0.983000000     1.318000000     5.151000000
H    -0.190000000     0.369000000     5.037000000
O     2.643000000     0.474000000    -3.010000000
H     2.280000000     0.019000000    -2.251000000
H     3.494000000     0.796000000    -2.713000000
O    -4.042000000    -2.684000000    -0.843000000
H    -3.294000000    -3.280000000    -0.882000000
H    -4.806000000    -3.259000000    -0.802000000
O     6.133000000    -4.265000000     1.689000000
H     7.047000000    -4.362000000     1.956000000
H     5.631000000    -4.650000000     2.407000000
O     1.953000000     2.629000000     4.378000000
H     2.552000000     1.894000000     4.245000000
H     2.495000000     3.311000000     4.775000000
O    -4.464000000    -2.773000000     3.684000000
H    -4.842000000    -2.149000000     3.065000000
H    -3.691000000    -3.116000000     3.237000000
O     0.748000000     1.460000000    -6.796000000
H     1.437000000     0.796000000    -6.817000000
H     0.949000000     1.989000000    -6.024000000
O     1.966000000    -5.673000000     6.044000000
H     1.853000000    -5.663000000     5.093000000
H     2.138000000    -4.760000000     6.275000000
O    -4.413000000     1.294000000    -0.190000000
H    -4.536000000     2.241000000    -0.120000000
H    -4.990000000     1.029000000    -0.905000000
O     4.420000000     1.409000000     2.156000000
H     4.849000000     1.820000000     2.906000000
H     4.181000000     0.535000000     2.466000000
O    -0.054000000    -3.094000000     7.790000000
H    -0.103000000    -3.434000000     6.896000000
H    -0.952000000    -2.835000000     7.997000000
O     0.887000000    -4.607000000     0.217000000
H     1.628000000    -4.368000000    -0.339000000
H     0.838000000    -3.907000000     0.867000000
O     4.489000000    -4.993000000     4.070000000
H     3.679000000    -5.190000000     3.600000000
H     4.231000000    -4.352000000     4.733000000
