161
-3030.46458
C    -0.274000000    -0.361000000     1.421000000
H    -0.470000000    -0.732000000     2.424000000
C     0.062000000    -1.286000000     0.423000000
H     0.096000000    -2.354000000     0.623000000
C     0.224000000    -0.817000000    -0.898000000
C     0.540000000    -1.807000000    -1.952000000
H     1.623000000    -1.829000000    -2.088000000
H     0.129000000    -2.800000000    -1.756000000
H     0.202000000    -1.470000000    -2.934000000
C     0.022000000     0.507000000    -1.172000000
H     0.226000000     0.961000000    -2.139000000
C    -0.269000000     1.387000000    -0.185000000
H    -0.309000000     2.453000000    -0.390000000
C    -0.354000000     0.998000000     1.159000000
C    -0.497000000     2.092000000     2.206000000
O    -0.959000000     3.181000000     1.933000000
O     0.012000000     1.880000000     3.327000000
O     2.480000000     1.949000000     6.253000000
H     2.505000000     1.583000000     5.368000000
H     3.272000000     2.483000000     6.314000000
O    -4.668000000     7.001000000     2.318000000
H    -5.573000000     6.726000000     2.168000000
H    -4.144000000     6.234000000     2.085000000
O     1.879000000    -0.840000000     7.229000000
H     1.584000000    -0.887000000     6.320000000
H     2.256000000     0.036000000     7.314000000
O    -1.615000000    -8.002000000    -3.201000000
H    -0.856000000    -8.563000000    -3.361000000
H    -1.247000000    -7.204000000    -2.821000000
O    -2.903000000    -3.422000000     0.669000000
H    -3.321000000    -3.301000000     1.521000000
H    -2.115000000    -3.930000000     0.858000000
O     1.537000000     4.529000000     2.774000000
H     0.822000000     3.996000000     2.427000000
H     2.298000000     4.279000000     2.250000000
O    -1.082000000     1.572000000    -5.438000000
H    -1.711000000     2.069000000    -5.961000000
H    -0.232000000     1.951000000    -5.663000000
O    -0.254000000     2.319000000     5.907000000
H     0.587000000     2.224000000     6.354000000
H    -0.074000000     2.069000000     5.001000000
O    -4.665000000     0.630000000     1.990000000
H    -5.536000000     1.026000000     1.964000000
H    -4.491000000     0.374000000     1.085000000
O     4.141000000     3.143000000     2.443000000
H     4.123000000     2.603000000     1.653000000
H     3.697000000     2.614000000     3.105000000
O    -2.755000000     4.465000000     3.431000000
H    -2.908000000     4.749000000     2.530000000
H    -2.184000000     3.701000000     3.347000000
O     4.286000000    -1.386000000    -0.412000000
H     4.363000000    -0.553000000     0.053000000
H     4.131000000    -1.139000000    -1.323000000
O     2.504000000     4.469000000    -4.740000000
H     2.333000000     3.528000000    -4.720000000
H     2.337000000     4.724000000    -5.647000000
O    -0.501000000    -5.294000000     0.503000000
H    -0.031000000    -5.578000000    -0.281000000
H    -0.783000000    -6.108000000     0.921000000
O     2.471000000    -6.659000000    -0.758000000
H     2.475000000    -6.818000000    -1.702000000
H     2.913000000    -5.817000000    -0.655000000
O    -1.534000000    -2.700000000    -4.222000000
H    -1.981000000    -3.058000000    -3.455000000
H    -2.240000000    -2.403000000    -4.795000000
O     4.265000000    -1.760000000     4.899000000
H     3.818000000    -1.747000000     4.053000000
H     3.850000000    -2.476000000     5.380000000
O     2.831000000    -5.765000000    -3.520000000
H     3.512000000    -5.971000000    -4.160000000
H     2.227000000    -5.190000000    -3.989000000
O    -3.436000000     0.176000000    -0.287000000
H    -3.591000000     0.942000000    -0.841000000
H    -2.551000000     0.303000000     0.054000000
O    -2.577000000     2.080000000     6.994000000
H    -3.137000000     1.663000000     6.339000000
H    -1.708000000     2.095000000     6.592000000
O     0.682000000    -4.101000000    -4.421000000
H     0.412000000    -4.504000000    -5.246000000
H     0.061000000    -3.385000000    -4.291000000
O    -3.387000000    -3.900000000     3.623000000
H    -3.159000000    -3.231000000     4.268000000
H    -4.204000000    -4.278000000     3.948000000
O     2.584000000    -1.326000000     2.751000000
H     1.924000000    -1.650000000     3.364000000
H     2.304000000    -1.660000000     1.899000000
O     3.890000000    -0.448000000    -3.141000000
H     4.670000000     0.100000000    -3.054000000
H     3.644000000    -0.372000000    -4.063000000
O    -5.409000000     4.008000000     1.301000000
H    -4.539000000     4.061000000     0.904000000
H    -5.735000000     3.144000000     1.049000000
O     3.044000000    -0.476000000    -5.649000000
H     3.485000000    -0.672000000    -6.476000000
H     2.202000000    -0.926000000    -5.715000000
O     4.726000000    -3.589000000     2.349000000
H     3.804000000    -3.834000000     2.420000000
H     4.793000000    -3.149000000     1.501000000
O    -2.917000000     4.972000000     0.830000000
H    -2.842000000     5.794000000     0.345000000
H    -2.021000000     4.638000000     0.876000000
O    -2.891000000    -3.728000000    -2.136000000
H    -3.636000000    -4.328000000    -2.153000000
H    -2.807000000    -3.476000000    -1.217000000
O     2.619000000     4.089000000    -1.075000000
H     3.239000000     4.417000000    -1.727000000
H     2.810000000     4.597000000    -0.287000000
O     2.037000000     2.121000000    -5.745000000
H     2.520000000     1.299000000    -5.660000000
H     1.781000000     2.154000000    -6.667000000
O     3.323000000     1.550000000     0.097000000
H     3.182000000     2.310000000    -0.467000000
H     2.660000000     0.918000000    -0.183000000
O    -3.411000000     2.410000000    -2.469000000
H    -3.944000000     3.205000000    -2.452000000
H    -2.508000000     2.726000000    -2.440000000
O    -0.097000000     6.523000000     4.223000000
H     0.481000000     5.894000000     3.792000000
H    -0.970000000     6.138000000     4.144000000
O    -0.702000000     4.892000000     6.724000000
H    -0.750000000     4.001000000     6.379000000
H    -0.024000000     5.317000000     6.198000000
O     0.639000000     6.293000000    -2.044000000
H     0.847000000     6.018000000    -2.937000000
H     0.420000000     5.481000000    -1.587000000
O     1.669000000    -5.326000000     4.143000000
H     0.856000000    -5.699000000     4.484000000
H     1.546000000    -5.310000000     3.194000000
O    -0.677000000    -5.520000000    -2.335000000
H    -0.112000000    -4.955000000    -2.861000000
H    -1.468000000    -5.001000000    -2.191000000
O     0.406000000    -0.781000000    -5.571000000
H    -0.086000000    -1.306000000    -4.939000000
H    -0.074000000     0.046000000    -5.619000000
O    -4.100000000     5.431000000     5.398000000
H    -3.684000000     4.945000000     4.686000000
H    -4.315000000     4.764000000     6.050000000
O    -4.435000000     1.867000000     4.530000000
H    -5.059000000     2.578000000     4.381000000
H    -4.421000000     1.385000000     3.703000000
O    -1.211000000    -3.124000000     6.413000000
H    -1.148000000    -3.850000000     7.034000000
H    -2.135000000    -2.873000000     6.432000000
O     1.953000000    -4.096000000     1.432000000
H     2.414000000    -3.958000000     0.605000000
H     1.097000000    -4.437000000     1.176000000
O     3.242000000    -4.046000000    -1.007000000
H     3.954000000    -3.407000000    -0.990000000
H     3.209000000    -4.345000000    -1.916000000
O     0.977000000    -2.666000000     4.857000000
H     0.112000000    -2.624000000     5.266000000
H     1.202000000    -3.596000000     4.869000000
O     2.640000000     1.031000000     3.751000000
H     1.801000000     1.340000000     3.407000000
H     2.696000000     0.121000000     3.461000000
O     5.891000000    -3.689000000    -1.956000000
H     5.757000000    -2.807000000    -1.608000000
H     6.764000000    -3.662000000    -2.346000000
O     0.982000000    -2.538000000    -7.552000000
H     0.791000000    -1.948000000    -6.823000000
H     0.511000000    -3.343000000    -7.338000000
