161
-3024.55837
C    -0.872000000    -0.860000000     0.900000000
H    -1.299000000    -1.523000000     1.648000000
C    -0.377000000    -1.247000000    -0.338000000
H    -0.599000000    -2.267000000    -0.641000000
C     0.351000000    -0.377000000    -1.136000000
C     0.779000000    -0.763000000    -2.513000000
H     1.866000000    -0.849000000    -2.560000000
H     0.303000000    -1.712000000    -2.767000000
H     0.572000000     0.054000000    -3.207000000
C     0.645000000     0.896000000    -0.662000000
H     1.267000000     1.553000000    -1.264000000
C     0.277000000     1.289000000     0.597000000
H     0.439000000     2.280000000     1.013000000
C    -0.462000000     0.389000000     1.432000000
C    -0.828000000     0.917000000     2.811000000
O    -0.722000000     2.064000000     3.119000000
O    -1.341000000     0.158000000     3.574000000
O    -3.115000000    -3.559000000     1.017000000
H    -3.049000000    -2.644000000     0.744000000
H    -3.837000000    -3.570000000     1.645000000
O     1.440000000     3.238000000     4.424000000
H     0.916000000     3.047000000     3.646000000
H     2.155000000     2.603000000     4.392000000
O    -2.447000000     1.601000000    -2.321000000
H    -2.408000000     0.762000000    -2.780000000
H    -1.547000000     1.761000000    -2.038000000
O    -0.596000000     0.986000000     7.570000000
H    -0.100000000     0.453000000     6.949000000
H    -1.173000000     1.518000000     7.023000000
O    -5.161000000    -0.762000000     1.116000000
H    -4.794000000    -1.233000000     0.368000000
H    -4.629000000     0.032000000     1.183000000
O     3.476000000     1.524000000     3.912000000
H     3.483000000     1.316000000     2.978000000
H     3.973000000     0.814000000     4.319000000
O    -2.047000000     2.001000000     5.554000000
H    -2.933000000     2.001000000     5.193000000
H    -1.490000000     1.735000000     4.822000000
O     5.980000000    -2.626000000    -2.006000000
H     5.351000000    -2.537000000    -2.723000000
H     6.289000000    -3.530000000    -2.070000000
O    -2.489000000     2.399000000    -5.152000000
H    -2.978000000     1.589000000    -5.007000000
H    -3.161000000     3.078000000    -5.206000000
O     3.111000000     2.369000000    -4.469000000
H     3.485000000     1.667000000    -5.003000000
H     2.950000000     3.081000000    -5.089000000
O    -1.545000000    -5.528000000     0.193000000
H    -2.271000000    -4.935000000     0.388000000
H    -1.363000000    -5.965000000     1.025000000
O    -4.353000000    -3.413000000     5.591000000
H    -3.758000000    -2.696000000     5.813000000
H    -4.363000000    -3.966000000     6.372000000
O    -5.608000000    -0.951000000     4.021000000
H    -6.453000000    -1.330000000     4.265000000
H    -5.495000000    -1.191000000     3.101000000
O    -3.842000000    -3.304000000    -3.493000000
H    -3.111000000    -3.102000000    -4.078000000
H    -3.664000000    -4.194000000    -3.187000000
O     2.922000000    -3.669000000    -2.789000000
H     2.812000000    -4.436000000    -3.351000000
H     3.075000000    -2.946000000    -3.398000000
O    -4.673000000    -1.627000000    -1.328000000
H    -4.494000000    -2.031000000    -2.178000000
H    -4.958000000    -0.739000000    -1.541000000
O    -2.873000000    -1.864000000     3.915000000
H    -3.715000000    -1.412000000     3.968000000
H    -2.235000000    -1.166000000     3.766000000
O     0.115000000    -4.158000000    -3.856000000
H     0.620000000    -3.987000000    -4.651000000
H    -0.132000000    -3.289000000    -3.538000000
O     2.814000000    -2.111000000     1.003000000
H     3.360000000    -1.325000000     0.973000000
H     2.041000000    -1.885000000     0.486000000
O     4.478000000     0.107000000    -1.368000000
H     4.067000000     0.506000000    -2.134000000
H     5.062000000    -0.560000000    -1.729000000
O    -1.206000000    -3.377000000     6.558000000
H    -2.077000000    -3.428000000     6.951000000
H    -1.039000000    -2.439000000     6.466000000
O    -2.295000000    -4.967000000     4.128000000
H    -3.170000000    -5.154000000     4.468000000
H    -1.958000000    -4.278000000     4.700000000
O    -3.181000000     5.512000000     1.313000000
H    -2.950000000     6.080000000     0.578000000
H    -2.375000000     5.034000000     1.509000000
O     3.696000000    -1.265000000    -4.242000000
H     3.212000000    -0.858000000    -4.960000000
H     4.473000000    -0.716000000    -4.135000000
O    -3.686000000     1.545000000     1.552000000
H    -2.989000000     1.432000000     2.199000000
H    -3.270000000     2.019000000     0.832000000
O    -2.787000000    -5.954000000    -2.563000000
H    -1.858000000    -5.731000000    -2.615000000
H    -2.904000000    -6.290000000    -1.674000000
O     2.970000000     3.329000000     0.136000000
H     3.639000000     3.188000000    -0.534000000
H     3.071000000     4.248000000     0.386000000
O     2.351000000    -0.191000000    -6.206000000
H     2.267000000    -0.554000000    -7.088000000
H     1.511000000     0.237000000    -6.043000000
O     4.184000000     3.001000000    -2.141000000
H     5.069000000     2.900000000    -2.492000000
H     3.610000000     2.781000000    -2.874000000
O    -2.066000000    -2.618000000    -5.659000000
H    -1.315000000    -3.110000000    -5.992000000
H    -2.828000000    -3.106000000    -5.969000000
O     3.887000000     1.129000000     1.166000000
H     4.217000000     0.626000000     0.422000000
H     3.264000000     1.746000000     0.781000000
O    -0.993000000     4.360000000     1.491000000
H    -0.937000000     3.465000000     1.827000000
H    -0.550000000     4.325000000     0.643000000
O     0.908000000     4.051000000    -5.341000000
H     0.671000000     3.183000000    -5.668000000
H     0.372000000     4.166000000    -4.556000000
O     5.182000000    -2.960000000    -6.137000000
H     4.717000000    -2.295000000    -5.629000000
H     6.106000000    -2.726000000    -6.050000000
O    -0.518000000     4.414000000     6.195000000
H     0.348000000     4.088000000     5.948000000
H    -1.114000000     3.699000000     5.974000000
O    -0.791000000     3.832000000    -3.359000000
H    -1.479000000     3.418000000    -3.881000000
H    -1.152000000     3.867000000    -2.473000000
O     0.434000000     4.500000000    -0.600000000
H     0.761000000     5.246000000    -1.103000000
H     1.184000000     3.908000000    -0.535000000
O     0.031000000    -6.184000000    -1.782000000
H     0.264000000    -5.389000000    -2.263000000
H    -0.586000000    -5.887000000    -1.113000000
O    -3.254000000    -0.254000000    -4.176000000
H    -4.175000000    -0.503000000    -4.254000000
H    -2.795000000    -0.842000000    -4.775000000
O     0.112000000     7.081000000     2.018000000
H    -0.009000000     6.158000000     1.796000000
H     0.106000000     7.101000000     2.975000000
O    -1.359000000     6.284000000     4.552000000
H    -2.308000000     6.256000000     4.669000000
H    -1.044000000     5.472000000     4.949000000
O    -4.796000000     1.793000000     4.111000000
H    -4.861000000     2.081000000     3.200000000
H    -4.963000000     0.851000000     4.076000000
O     0.929000000    -4.041000000     2.904000000
H     0.025000000    -3.953000000     2.602000000
H     1.160000000    -3.169000000     3.225000000
O     3.067000000    -4.949000000    -0.214000000
H     2.922000000    -4.738000000    -1.137000000
H     3.314000000    -4.115000000     0.186000000
O     1.455000000    -1.270000000     3.620000000
H     2.400000000    -1.283000000     3.466000000
H     1.112000000    -0.675000000     2.953000000
O    -0.305000000    -0.922000000     5.749000000
H    -0.767000000    -0.444000000     5.060000000
H     0.076000000    -1.677000000     5.302000000
O    -0.023000000     1.404000000    -5.942000000
H    -0.218000000     1.198000000    -6.856000000
H    -0.826000000     1.806000000    -5.611000000
O     0.492000000    -4.123000000    -6.630000000
H    -0.161000000    -4.487000000    -7.228000000
H     1.329000000    -4.271000000    -7.070000000
