161
-3061.24851
C     0.174000000    -1.335000000     0.812000000
H     0.279000000    -2.333000000     1.229000000
C     0.383000000    -1.155000000    -0.558000000
H     0.702000000    -1.989000000    -1.178000000
C     0.141000000     0.079000000    -1.177000000
C     0.333000000     0.222000000    -2.678000000
H    -0.575000000     0.779000000    -2.919000000
H     1.177000000     0.864000000    -2.940000000
H     0.398000000    -0.764000000    -3.143000000
C    -0.249000000     1.161000000    -0.460000000
H    -0.288000000     2.115000000    -0.980000000
C    -0.458000000     1.100000000     0.873000000
H    -0.652000000     1.994000000     1.460000000
C    -0.231000000    -0.162000000     1.479000000
C    -0.382000000    -0.194000000     2.953000000
O    -0.581000000     0.825000000     3.613000000
O    -0.171000000    -1.203000000     3.618000000
O    -0.746000000     3.431000000    -4.487000000
H    -0.033000000     4.040000000    -4.679000000
H    -1.061000000     3.696000000    -3.623000000
O     4.463000000    -2.604000000    -1.496000000
H     4.684000000    -3.477000000    -1.170000000
H     4.798000000    -2.007000000    -0.827000000
O     0.578000000    -5.243000000    -1.883000000
H    -0.093000000    -5.560000000    -1.278000000
H     0.099000000    -5.038000000    -2.686000000
O    -5.310000000    -1.836000000     3.261000000
H    -4.492000000    -2.177000000     3.622000000
H    -5.292000000    -0.901000000     3.469000000
O    -2.806000000     0.892000000     5.018000000
H    -3.091000000     0.022000000     4.738000000
H    -1.954000000     1.011000000     4.599000000
O     2.774000000     0.287000000     0.589000000
H     1.987000000     0.004000000     0.123000000
H     2.515000000     0.304000000     1.510000000
O    -3.166000000    -4.583000000    -1.759000000
H    -3.416000000    -4.269000000    -0.890000000
H    -2.265000000    -4.890000000    -1.652000000
O     0.594000000    -3.762000000     3.372000000
H    -0.175000000    -4.236000000     3.056000000
H     0.381000000    -2.839000000     3.233000000
O    -3.704000000     2.072000000    -1.143000000
H    -4.423000000     2.661000000    -0.915000000
H    -3.588000000     1.523000000    -0.368000000
O    -2.361000000     4.855000000     1.570000000
H    -3.269000000     4.699000000     1.831000000
H    -1.843000000     4.326000000     2.177000000
O    -2.914000000    -3.190000000     1.215000000
H    -3.744000000    -2.756000000     1.410000000
H    -2.616000000    -2.782000000     0.402000000
O    -2.222000000     1.858000000     7.469000000
H    -2.539000000     1.500000000     6.640000000
H    -2.139000000     2.798000000     7.308000000
O     5.210000000     2.122000000    -1.135000000
H     5.399000000     2.269000000    -0.208000000
H     4.646000000     2.855000000    -1.383000000
O    -1.837000000     3.850000000    -1.761000000
H    -1.866000000     4.585000000    -1.148000000
H    -2.508000000     3.247000000    -1.443000000
O     3.792000000    -0.433000000    -3.678000000
H     3.756000000    -0.300000000    -2.731000000
H     4.314000000    -1.228000000    -3.789000000
O    -2.547000000    -1.160000000    -0.794000000
H    -2.437000000    -1.514000000    -1.676000000
H    -2.005000000    -0.371000000    -0.784000000
O    -2.785000000    -0.720000000    -5.867000000
H    -3.533000000    -0.214000000    -6.184000000
H    -2.088000000    -0.074000000    -5.755000000
O     2.239000000    -5.434000000     4.661000000
H     1.672000000    -4.788000000     4.240000000
H     1.656000000    -5.920000000     5.244000000
O    -1.934000000    -1.905000000    -3.380000000
H    -1.627000000    -2.811000000    -3.369000000
H    -2.171000000    -1.743000000    -4.294000000
O    -1.797000000    -4.807000000     2.805000000
H    -2.344000000    -4.289000000     2.214000000
H    -2.140000000    -4.615000000     3.678000000
O    -1.229000000    -6.059000000    -0.119000000
H    -0.608000000    -5.743000000     0.537000000
H    -1.877000000    -6.553000000     0.383000000
O     3.063000000     5.703000000     0.951000000
H     2.431000000     5.403000000     0.298000000
H     3.817000000     5.994000000     0.438000000
O    -0.310000000    -0.894000000     6.260000000
H     0.085000000    -0.026000000     6.181000000
H    -0.488000000    -1.160000000     5.357000000
O    -0.909000000    -4.729000000    -4.277000000
H    -0.915000000    -4.140000000    -5.031000000
H    -1.350000000    -5.520000000    -4.588000000
O     1.930000000     0.675000000    -8.236000000
H     1.337000000    -0.064000000    -8.374000000
H     1.921000000     0.815000000    -7.290000000
O     5.232000000    -0.966000000     0.509000000
H     5.195000000    -1.393000000     1.365000000
H     4.387000000    -0.522000000     0.427000000
O    -3.050000000     3.132000000    -7.161000000
H    -3.883000000     2.679000000    -7.027000000
H    -2.397000000     2.556000000    -6.764000000
O     2.100000000     4.244000000     3.150000000
H     2.709000000     4.329000000     3.883000000
H     2.228000000     5.042000000     2.638000000
O     2.674000000    -3.974000000    -3.211000000
H     3.110000000    -3.510000000    -2.496000000
H     1.902000000    -4.368000000    -2.805000000
O    -0.806000000     6.698000000     0.061000000
H     0.041000000     6.276000000     0.202000000
H    -1.389000000     6.285000000     0.699000000
O     1.087000000     4.705000000    -0.709000000
H     1.472000000     4.999000000    -1.535000000
H     0.244000000     4.329000000    -0.959000000
O    -2.537000000     4.905000000     5.295000000
H    -2.885000000     5.654000000     4.810000000
H    -2.041000000     4.408000000     4.644000000
O     0.893000000     1.548000000     6.009000000
H     0.933000000     2.468000000     6.268000000
H     0.629000000     1.568000000     5.090000000
O     1.621000000    -0.202000000    -5.621000000
H     2.118000000    -0.144000000    -4.805000000
H     1.419000000    -1.133000000    -5.712000000
O     4.250000000     2.485000000     1.461000000
H     3.853000000     1.670000000     1.154000000
H     3.507000000     3.062000000     1.637000000
O    -0.533000000     3.556000000     3.589000000
H    -0.640000000     2.608000000     3.664000000
H     0.364000000     3.672000000     3.276000000
O    -5.308000000    -0.970000000    -1.748000000
H    -4.394000000    -1.234000000    -1.643000000
H    -5.780000000    -1.475000000    -1.086000000
O    -0.961000000     1.172000000    -6.024000000
H    -0.147000000     0.730000000    -5.785000000
H    -0.914000000     2.019000000    -5.580000000
O    -3.638000000     2.258000000    -3.879000000
H    -2.729000000     2.007000000    -4.047000000
H    -3.741000000     2.164000000    -2.932000000
O     2.880000000     0.109000000     3.771000000
H     2.337000000    -0.495000000     4.278000000
H     2.748000000     0.959000000     4.191000000
O    -4.829000000     2.793000000     5.269000000
H    -4.443000000     3.583000000     5.646000000
H    -4.108000000     2.165000000     5.237000000
O    -1.091000000    -3.257000000     7.232000000
H    -1.010000000    -2.512000000     6.636000000
H    -0.714000000    -2.946000000     8.055000000
O    -0.182000000     6.502000000     4.115000000
H    -0.285000000     6.645000000     5.056000000
H    -0.251000000     5.553000000     4.008000000
O     2.024000000    -2.249000000     5.450000000
H     1.888000000    -2.830000000     4.702000000
H     1.142000000    -2.056000000     5.767000000
O     4.294000000     1.117000000    -6.039000000
H     4.066000000     0.627000000    -6.829000000
H     4.172000000     0.491000000    -5.325000000
O    -2.789000000    -2.004000000     4.342000000
H    -1.960000000    -1.932000000     3.869000000
H    -2.592000000    -2.574000000     5.085000000
O     2.635000000    -3.271000000    -6.091000000
H     2.885000000    -3.309000000    -5.168000000
H     2.358000000    -4.163000000    -6.301000000
O     2.285000000    -0.412000000     7.828000000
H     2.991000000    -0.642000000     7.225000000
H     1.788000000     0.265000000     7.369000000
