161
-3023.20174
C    -0.591000000    -1.085000000     0.933000000
H    -1.000000000    -1.917000000     1.501000000
C     0.430000000    -1.226000000    -0.030000000
H     0.854000000    -2.220000000    -0.147000000
C     0.867000000    -0.207000000    -0.864000000
C     1.949000000    -0.343000000    -1.922000000
H     1.534000000    -0.904000000    -2.763000000
H     2.460000000     0.583000000    -2.190000000
H     2.635000000    -1.059000000    -1.465000000
C     0.338000000     1.057000000    -0.729000000
H     0.689000000     1.816000000    -1.424000000
C    -0.638000000     1.352000000     0.235000000
H    -1.136000000     2.302000000     0.412000000
C    -1.117000000     0.240000000     1.029000000
C    -2.197000000     0.473000000     2.150000000
O    -2.692000000     1.575000000     2.331000000
O    -2.386000000    -0.429000000     2.937000000
O     0.253000000     3.643000000    -3.541000000
H     1.144000000     3.890000000    -3.786000000
H     0.217000000     3.784000000    -2.594000000
O     1.153000000    -5.851000000     2.652000000
H     1.044000000    -6.202000000     1.768000000
H     0.408000000    -5.263000000     2.770000000
O     7.143000000    -1.976000000    -0.928000000
H     6.210000000    -1.830000000    -1.084000000
H     7.331000000    -2.808000000    -1.363000000
O     2.003000000    -4.983000000    -2.372000000
H     2.274000000    -5.819000000    -1.992000000
H     1.080000000    -4.898000000    -2.130000000
O    -7.070000000    -2.442000000     2.718000000
H    -6.174000000    -2.171000000     2.916000000
H    -7.533000000    -1.623000000     2.539000000
O    -3.810000000     1.358000000     5.059000000
H    -3.161000000     0.753000000     5.417000000
H    -3.534000000     1.497000000     4.153000000
O     3.088000000    -0.323000000     3.224000000
H     2.656000000    -1.007000000     2.713000000
H     2.621000000     0.480000000     2.991000000
O    -4.644000000     2.572000000     0.952000000
H    -4.154000000     3.221000000     0.447000000
H    -3.971000000     2.014000000     1.342000000
O    -1.898000000    -2.760000000     4.185000000
H    -1.562000000    -3.359000000     3.518000000
H    -2.235000000    -2.014000000     3.689000000
O    -2.052000000     4.095000000    -1.675000000
H    -2.867000000     3.716000000    -2.005000000
H    -2.006000000     4.958000000    -2.086000000
O    -1.960000000     6.070000000     0.501000000
H    -2.783000000     6.258000000     0.951000000
H    -2.179000000     5.375000000    -0.119000000
O    -3.980000000    -1.786000000     0.304000000
H    -3.849000000    -1.638000000     1.240000000
H    -4.621000000    -1.125000000     0.044000000
O    -3.238000000    -4.079000000    -0.905000000
H    -4.069000000    -4.420000000    -1.235000000
H    -3.468000000    -3.249000000    -0.487000000
O    -1.395000000     2.159000000     6.557000000
H    -1.685000000     3.047000000     6.349000000
H    -1.664000000     2.027000000     7.466000000
O     5.230000000     1.546000000    -0.531000000
H     5.564000000     1.394000000    -1.415000000
H     4.567000000     2.228000000    -0.639000000
O     0.800000000     4.893000000    -1.268000000
H     1.236000000     5.667000000    -0.911000000
H     0.046000000     4.757000000    -0.695000000
O     6.618000000     1.481000000    -3.761000000
H     6.618000000     2.335000000    -4.193000000
H     7.539000000     1.224000000    -3.739000000
O     4.725000000    -3.703000000     0.386000000
H     4.290000000    -4.555000000     0.390000000
H     4.921000000    -3.530000000     1.307000000
O    -5.952000000     0.066000000    -0.078000000
H    -6.853000000     0.389000000    -0.096000000
H    -5.500000000     0.652000000     0.528000000
O     3.282000000     3.368000000    -1.889000000
H     3.215000000     3.585000000    -2.819000000
H     2.534000000     3.807000000    -1.486000000
O    -2.374000000    -0.451000000    -2.012000000
H    -2.149000000    -1.147000000    -1.395000000
H    -1.719000000     0.229000000    -1.855000000
O    -2.177000000    -1.158000000    -5.722000000
H    -2.689000000    -1.462000000    -4.972000000
H    -1.541000000    -0.549000000    -5.347000000
O    -1.341000000    -4.592000000     2.158000000
H    -1.552000000    -4.305000000     1.270000000
H    -1.925000000    -5.334000000     2.315000000
O    -0.689000000    -5.101000000    -1.356000000
H    -1.337000000    -4.474000000    -1.035000000
H    -1.120000000    -5.952000000    -1.276000000
O    -7.020000000     3.268000000     1.424000000
H    -6.102000000     3.017000000     1.325000000
H    -7.477000000     2.777000000     0.740000000
O    -0.252000000     0.129000000     4.768000000
H    -0.584000000     0.570000000     5.550000000
H    -1.033000000    -0.223000000     4.341000000
O    -4.389000000    -3.186000000     5.533000000
H    -4.410000000    -4.112000000     5.292000000
H    -3.497000000    -3.041000000     5.850000000
O     0.890000000    -3.528000000    -4.528000000
H     1.434000000    -2.766000000    -4.727000000
H     1.103000000    -3.745000000    -3.621000000
O     4.696000000     5.108000000     0.112000000
H     4.067000000     4.436000000    -0.150000000
H     4.833000000     4.956000000     1.047000000
O     6.089000000    -0.161000000     2.466000000
H     5.426000000     0.043000000     1.806000000
H     6.186000000     0.649000000     2.966000000
O    -1.389000000     5.248000000    -5.192000000
H    -2.028000000     4.700000000    -5.648000000
H    -1.052000000     4.690000000    -4.491000000
O     1.873000000     1.701000000     2.157000000
H     1.508000000     1.712000000     1.273000000
H     1.149000000     1.976000000     2.719000000
O     4.064000000    -3.249000000    -2.337000000
H     4.367000000    -3.392000000    -1.440000000
H     3.159000000    -3.562000000    -2.336000000
O     6.174000000    -3.393000000    -4.391000000
H     6.609000000    -4.160000000    -4.018000000
H     5.374000000    -3.296000000    -3.874000000
O    -0.071000000     3.058000000     3.772000000
H    -0.203000000     2.286000000     4.322000000
H    -0.836000000     3.608000000     3.944000000
O     3.860000000     1.639000000    -5.061000000
H     4.754000000     1.979000000    -5.071000000
H     3.747000000     1.287000000    -4.178000000
O    -2.862000000     4.062000000     3.176000000
H    -2.784000000     3.177000000     2.821000000
H    -3.787000000     4.147000000     3.409000000
O    -0.397000000     0.567000000    -4.226000000
H     0.503000000     0.350000000    -4.469000000
H    -0.358000000     1.485000000    -3.960000000
O    -4.598000000     3.183000000    -2.172000000
H    -4.816000000     2.281000000    -2.404000000
H    -5.397000000     3.677000000    -2.355000000
O     2.267000000    -3.087000000     2.398000000
H     1.836000000    -3.711000000     2.982000000
H     3.177000000    -3.381000000     2.363000000
O    -5.453000000     3.878000000     4.954000000
H    -6.394000000     4.050000000     4.921000000
H    -5.377000000     2.932000000     4.832000000
O    -1.256000000     6.612000000     3.593000000
H    -1.772000000     5.841000000     3.356000000
H    -0.387000000     6.439000000     3.230000000
O     2.604000000     4.492000000    -4.452000000
H     2.769000000     5.397000000    -4.188000000
H     3.187000000     4.349000000    -5.197000000
O     0.596000000    -3.133000000     5.395000000
H    -0.267000000    -2.940000000     5.029000000
H     1.008000000    -2.276000000     5.504000000
O    -5.692000000    -1.093000000     6.582000000
H    -5.192000000    -1.028000000     7.396000000
H    -5.339000000    -1.868000000     6.145000000
O    -4.535000000    -1.814000000     3.299000000
H    -3.708000000    -1.331000000     3.315000000
H    -4.605000000    -2.198000000     4.173000000
O     3.126000000    -1.494000000    -4.602000000
H     3.530000000    -2.049000000    -3.936000000
H     3.833000000    -1.310000000    -5.221000000
O     1.940000000    -0.709000000     5.550000000
H     2.575000000    -0.796000000     4.839000000
H     1.136000000    -0.421000000     5.119000000
