161
-3034.26892
C    -0.292000000    -1.311000000     0.577000000
H    -0.388000000    -2.317000000     0.977000000
C     0.964000000    -0.889000000     0.071000000
H     1.829000000    -1.547000000     0.096000000
C     1.053000000     0.321000000    -0.518000000
C     2.450000000     0.775000000    -1.028000000
H     2.387000000     1.557000000    -1.788000000
H     2.938000000     1.234000000    -0.166000000
H     3.050000000    -0.063000000    -1.390000000
C    -0.032000000     1.159000000    -0.606000000
H     0.098000000     2.170000000    -0.984000000
C    -1.220000000     0.829000000     0.011000000
H    -2.077000000     1.484000000     0.143000000
C    -1.423000000    -0.481000000     0.579000000
C    -2.732000000    -0.884000000     1.131000000
O    -3.746000000    -0.141000000     1.032000000
O    -2.851000000    -1.894000000     1.861000000
O    -7.571000000    -4.062000000     3.369000000
H    -7.030000000    -3.736000000     2.649000000
H    -8.411000000    -3.617000000     3.257000000
O    -4.376000000     0.435000000    -2.219000000
H    -4.516000000    -0.481000000    -1.978000000
H    -4.509000000     0.920000000    -1.405000000
O     6.288000000     0.806000000    -2.329000000
H     5.916000000    -0.065000000    -2.468000000
H     5.592000000     1.408000000    -2.592000000
O     4.036000000     3.342000000     4.116000000
H     4.064000000     3.453000000     5.066000000
H     4.692000000     2.668000000     3.935000000
O     6.867000000     3.457000000    -0.281000000
H     7.216000000     4.344000000    -0.371000000
H     5.963000000     3.585000000     0.007000000
O     6.640000000    -1.129000000     2.665000000
H     6.595000000    -0.290000000     3.123000000
H     5.792000000    -1.210000000     2.229000000
O     5.212000000    -0.475000000     0.496000000
H     4.671000000    -0.895000000    -0.172000000
H     5.476000000     0.356000000     0.103000000
O    -4.765000000     0.484000000     3.433000000
H    -4.252000000     0.395000000     2.630000000
H    -5.254000000     1.298000000     3.316000000
O     0.731000000    -0.569000000     4.021000000
H     0.362000000    -1.287000000     3.506000000
H     1.654000000    -0.542000000     3.768000000
O    -1.733000000    -4.469000000    -1.683000000
H    -1.904000000    -4.660000000    -0.761000000
H    -2.516000000    -4.776000000    -2.141000000
O    -4.817000000    -1.856000000    -1.030000000
H    -4.496000000    -1.300000000    -0.320000000
H    -4.653000000    -2.749000000    -0.728000000
O     0.641000000    -4.712000000    -2.806000000
H    -0.103000000    -4.631000000    -2.210000000
H     0.245000000    -4.807000000    -3.673000000
O    -7.449000000    -0.747000000     1.737000000
H    -7.902000000    -0.047000000     2.207000000
H    -8.030000000    -1.504000000     1.818000000
O    -4.670000000    -5.123000000    -0.553000000
H    -5.500000000    -5.437000000    -0.193000000
H    -4.136000000    -4.925000000     0.217000000
O     1.084000000    -3.494000000     3.237000000
H     1.485000000    -3.790000000     2.419000000
H     1.779000000    -3.010000000     3.683000000
O    -2.541000000     3.045000000    -2.362000000
H    -3.025000000     2.229000000    -2.487000000
H    -2.909000000     3.644000000    -3.011000000
O    -1.258000000    -0.323000000    -4.920000000
H    -2.104000000    -0.626000000    -4.590000000
H    -0.615000000    -0.729000000    -4.338000000
O    -2.111000000     3.943000000     4.647000000
H    -1.595000000     4.031000000     3.846000000
H    -2.129000000     3.002000000     4.819000000
O     4.341000000     4.172000000     0.304000000
H     4.272000000     4.668000000    -0.512000000
H     4.578000000     4.825000000     0.962000000
O     3.465000000    -2.581000000     4.270000000
H     4.285000000    -3.076000000     4.263000000
H     3.476000000    -2.112000000     5.105000000
O    -1.038000000    -1.419000000     6.127000000
H    -0.429000000    -2.013000000     5.688000000
H    -1.876000000    -1.567000000     5.688000000
O    -2.688000000     1.400000000     5.179000000
H    -3.017000000     1.195000000     4.303000000
H    -2.441000000     0.551000000     5.546000000
O    -5.788000000     1.281000000     0.294000000
H    -4.971000000     0.890000000     0.603000000
H    -6.475000000     0.740000000     0.683000000
O     2.757000000    -1.748000000    -3.873000000
H     2.352000000    -1.003000000    -4.318000000
H     2.053000000    -2.393000000    -3.799000000
O     5.062000000    -1.564000000    -2.322000000
H     4.328000000    -1.507000000    -2.934000000
H     5.364000000    -2.469000000    -2.393000000
O    -1.559000000     6.928000000    -2.036000000
H    -0.864000000     7.531000000    -1.771000000
H    -1.444000000     6.166000000    -1.468000000
O     4.153000000     5.266000000    -2.132000000
H     3.986000000     6.052000000    -2.653000000
H     4.795000000     4.772000000    -2.643000000
O    -7.806000000    -1.128000000    -1.321000000
H    -7.568000000    -0.532000000    -0.612000000
H    -8.553000000    -1.620000000    -0.980000000
O    -5.529000000    -2.616000000     1.816000000
H    -6.137000000    -1.891000000     1.666000000
H    -4.693000000    -2.191000000     2.009000000
O    -5.844000000    -1.492000000     5.403000000
H    -6.454000000    -2.175000000     5.124000000
H    -5.501000000    -1.129000000     4.587000000
O    -1.658000000     4.751000000    -0.513000000
H    -2.126000000     4.183000000    -1.125000000
H    -2.107000000     4.622000000     0.323000000
O    -0.832000000     3.826000000     2.016000000
H     0.101000000     3.639000000     2.114000000
H    -0.932000000     4.073000000     1.097000000
O    -0.312000000     3.980000000    -3.822000000
H    -0.679000000     3.564000000    -4.602000000
H    -0.581000000     3.413000000    -3.099000000
O    -0.215000000    -1.940000000    -3.084000000
H    -0.981000000    -2.504000000    -2.979000000
H     0.181000000    -1.907000000    -2.213000000
O    -1.177000000    -5.273000000     3.698000000
H    -0.382000000    -4.764000000     3.537000000
H    -1.152000000    -5.465000000     4.635000000
O     1.801000000    -0.331000000    -6.084000000
H     1.867000000     0.250000000    -6.841000000
H     1.133000000    -0.971000000    -6.330000000
O     3.157000000    -4.834000000    -1.841000000
H     3.620000000    -5.152000000    -2.616000000
H     2.279000000    -4.621000000    -2.157000000
O    -3.429000000    -3.994000000     6.738000000
H    -2.479000000    -4.013000000     6.857000000
H    -3.551000000    -3.692000000     5.838000000
O     5.744000000    -3.398000000     1.067000000
H     5.761000000    -2.443000000     1.008000000
H     6.572000000    -3.677000000     0.676000000
O    -2.672000000    -4.310000000     1.163000000
H    -1.944000000    -4.609000000     1.708000000
H    -2.750000000    -3.377000000     1.359000000
O     1.562000000     5.231000000    -1.394000000
H     0.905000000     4.936000000    -2.024000000
H     2.393000000     4.917000000    -1.750000000
O    -6.286000000     2.779000000     3.194000000
H    -6.401000000     3.204000000     4.044000000
H    -6.347000000     3.492000000     2.559000000
O    -2.592000000    -2.955000000     4.375000000
H    -2.824000000    -2.656000000     3.496000000
H    -2.194000000    -3.814000000     4.238000000
O    -1.443000000     2.394000000    -5.564000000
H    -1.712000000     2.431000000    -6.482000000
H    -1.316000000     1.461000000    -5.389000000
O     1.809000000     6.860000000     1.054000000
H     1.815000000     6.151000000     1.697000000
H     1.618000000     6.427000000     0.222000000
O     2.004000000     4.198000000     1.867000000
H     2.293000000     3.590000000     1.187000000
H     2.590000000     4.029000000     2.605000000
O     3.143000000    -4.400000000     1.273000000
H     2.694000000    -4.702000000     0.483000000
H     3.979000000    -4.056000000     0.957000000
O    -7.034000000     2.896000000    -1.247000000
H    -6.461000000     2.293000000    -0.775000000
H    -7.880000000     2.449000000    -1.279000000
