161
-3026.39125
C    -0.151000000    -0.144000000     1.408000000
H    -0.088000000    -0.269000000     2.486000000
C     0.605000000    -1.012000000     0.680000000
H     1.235000000    -1.781000000     1.121000000
C     0.658000000    -0.763000000    -0.705000000
C     1.610000000    -1.495000000    -1.584000000
H     1.456000000    -1.456000000    -2.665000000
H     2.653000000    -1.405000000    -1.274000000
H     1.360000000    -2.532000000    -1.352000000
C    -0.157000000     0.234000000    -1.277000000
H    -0.081000000     0.402000000    -2.348000000
C    -0.935000000     1.108000000    -0.501000000
H    -1.497000000     1.932000000    -0.932000000
C    -0.924000000     0.912000000     0.865000000
C    -1.690000000     1.831000000     1.790000000
O    -2.129000000     2.872000000     1.353000000
O    -1.933000000     1.562000000     2.928000000
O     6.242000000    -2.667000000     1.828000000
H     6.376000000    -2.144000000     1.037000000
H     5.310000000    -2.885000000     1.815000000
O     1.900000000     3.139000000    -0.564000000
H     1.621000000     2.259000000    -0.816000000
H     1.181000000     3.707000000    -0.840000000
O    -3.140000000     3.100000000    -3.336000000
H    -3.743000000     2.452000000    -3.701000000
H    -3.508000000     3.312000000    -2.478000000
O    -2.828000000     2.855000000     7.113000000
H    -2.062000000     2.810000000     6.542000000
H    -3.324000000     3.608000000     6.790000000
O    -2.725000000    -1.729000000    -5.817000000
H    -2.943000000    -1.784000000    -4.887000000
H    -2.297000000    -0.878000000    -5.913000000
O    -4.456000000     1.933000000    -0.010000000
H    -4.262000000     2.826000000    -0.294000000
H    -3.777000000     1.733000000     0.635000000
O    -3.083000000    -4.430000000     2.580000000
H    -3.374000000    -3.885000000     1.849000000
H    -2.949000000    -3.813000000     3.300000000
O    -2.131000000     6.257000000     1.742000000
H    -2.762000000     5.585000000     2.001000000
H    -1.955000000     6.743000000     2.548000000
O    -2.625000000     6.195000000     5.499000000
H    -2.683000000     6.990000000     4.968000000
H    -2.819000000     5.485000000     4.888000000
O    -4.395000000     0.578000000     6.354000000
H    -4.782000000     0.983000000     5.577000000
H    -3.675000000     1.162000000     6.594000000
O     1.666000000     3.882000000    -4.364000000
H     1.169000000     4.417000000    -4.984000000
H     1.172000000     3.943000000    -3.546000000
O     2.851000000    -2.595000000    -6.265000000
H     2.040000000    -2.691000000    -5.765000000
H     2.815000000    -3.295000000    -6.917000000
O     1.690000000     1.289000000    -4.374000000
H     1.499000000     2.224000000    -4.447000000
H     0.875000000     0.904000000    -4.051000000
O     3.457000000    -0.481000000    -4.681000000
H     2.677000000     0.059000000    -4.552000000
H     3.181000000    -1.155000000    -5.302000000
O     2.218000000     1.359000000     5.948000000
H     1.841000000     2.111000000     6.404000000
H     2.978000000     1.114000000     6.475000000
O     2.450000000    -1.465000000     3.532000000
H     2.265000000    -0.603000000     3.159000000
H     3.322000000    -1.377000000     3.916000000
O     6.313000000    -1.553000000    -0.713000000
H     7.104000000    -2.035000000    -0.956000000
H     6.518000000    -0.640000000    -0.913000000
O    -1.769000000    -3.119000000     0.201000000
H    -2.551000000    -2.872000000     0.695000000
H    -1.247000000    -2.318000000     0.163000000
O    -0.672000000    -3.561000000    -3.045000000
H    -0.194000000    -3.823000000    -2.258000000
H    -1.315000000    -4.258000000    -3.178000000
O    -3.176000000    -2.181000000     4.699000000
H    -2.478000000    -1.527000000     4.658000000
H    -2.764000000    -2.947000000     5.098000000
O     1.780000000    -5.254000000     0.839000000
H     1.772000000    -6.210000000     0.795000000
H     0.930000000    -4.991000000     0.484000000
O    -1.417000000     0.558000000     5.661000000
H    -0.754000000    -0.072000000     5.379000000
H    -1.429000000     1.220000000     4.969000000
O     3.994000000    -4.300000000     4.254000000
H     3.580000000    -3.965000000     3.458000000
H     4.555000000    -5.013000000     3.950000000
O    -4.024000000     0.105000000     3.097000000
H    -3.336000000     0.769000000     3.151000000
H    -3.751000000    -0.573000000     3.714000000
O     1.277000000     7.011000000     1.723000000
H     1.016000000     6.187000000     2.136000000
H     0.477000000     7.337000000     1.312000000
O     0.140000000    -6.830000000    -2.993000000
H    -0.130000000    -6.377000000    -2.195000000
H    -0.678000000    -7.009000000    -3.456000000
O    -0.853000000     4.671000000    -0.136000000
H    -1.252000000     4.085000000     0.508000000
H    -1.266000000     5.519000000     0.024000000
O    -0.471000000    -5.389000000    -0.858000000
H    -0.631000000    -6.186000000    -0.353000000
H    -1.129000000    -4.769000000    -0.541000000
O    -3.231000000    -1.995000000    -3.035000000
H    -2.384000000    -2.126000000    -2.610000000
H    -3.707000000    -1.410000000    -2.445000000
O    -3.984000000     4.421000000    -0.963000000
H    -4.647000000     4.935000000    -0.502000000
H    -3.160000000     4.873000000    -0.780000000
O     1.930000000    -4.552000000    -3.804000000
H     1.111000000    -4.473000000    -3.315000000
H     2.513000000    -3.910000000    -3.399000000
O    -0.001000000    -1.372000000    -5.021000000
H    -0.650000000    -0.674000000    -4.924000000
H    -0.247000000    -2.021000000    -4.362000000
O     4.445000000     1.238000000     1.230000000
H     3.650000000     1.457000000     1.717000000
H     4.602000000     0.315000000     1.431000000
O     6.029000000    -2.059000000    -5.073000000
H     5.484000000    -1.385000000    -4.667000000
H     5.700000000    -2.883000000    -4.712000000
O     5.304000000     1.038000000    -3.574000000
H     4.571000000     0.498000000    -3.869000000
H     5.450000000     0.768000000    -2.667000000
O     0.538000000    -5.078000000    -6.135000000
H     1.273000000    -5.037000000    -6.747000000
H     0.939000000    -4.977000000    -5.272000000
O    -0.041000000    -1.855000000     4.684000000
H     0.894000000    -1.934000000     4.493000000
H    -0.315000000    -2.744000000     4.911000000
O    -5.749000000     2.317000000     2.533000000
H    -5.133000000     1.584000000     2.549000000
H    -6.465000000     2.016000000     1.974000000
O    -5.337000000    -1.124000000    -0.974000000
H    -5.468000000    -0.192000000    -1.147000000
H    -5.901000000    -1.567000000    -1.609000000
O    -4.052000000    -2.064000000     1.213000000
H    -4.124000000    -1.366000000     1.864000000
H    -4.404000000    -1.680000000     0.410000000
O    -1.262000000     0.993000000    -4.588000000
H    -1.335000000     1.651000000    -3.897000000
H    -1.551000000     1.444000000    -5.381000000
O     0.661000000     3.501000000     3.071000000
H     0.770000000     3.770000000     3.983000000
H    -0.271000000     3.625000000     2.893000000
O     2.099000000     1.340000000     3.054000000
H     1.506000000     2.086000000     2.963000000
H     2.109000000     1.156000000     3.994000000
O    -3.666000000     4.121000000     3.558000000
H    -4.387000000     3.939000000     2.956000000
H    -3.012000000     3.451000000     3.358000000
O    -0.461000000     4.059000000    -2.745000000
H    -0.760000000     4.673000000    -2.073000000
H    -1.249000000     3.581000000    -3.000000000
O     0.509000000    -1.593000000    -7.965000000
H     1.370000000    -1.687000000    -8.372000000
H     0.695000000    -1.476000000    -7.034000000
O     3.781000000    -3.903000000    -1.337000000
H     3.244000000    -4.311000000    -0.658000000
H     4.406000000    -3.361000000    -0.856000000
O     3.447000000    -3.250000000     1.558000000
H     2.789000000    -3.907000000     1.334000000
H     2.998000000    -2.657000000     2.160000000
