161
-3039.89677
C    -0.081000000     1.399000000    -0.437000000
H    -0.322000000     2.389000000    -0.817000000
C    -0.988000000     0.383000000    -0.753000000
H    -1.922000000     0.641000000    -1.246000000
C    -0.782000000    -0.913000000    -0.289000000
C    -1.841000000    -1.956000000    -0.544000000
H    -1.750000000    -2.878000000     0.035000000
H    -2.757000000    -1.555000000    -0.104000000
H    -2.104000000    -2.202000000    -1.574000000
C     0.455000000    -1.253000000     0.437000000
H     0.591000000    -2.244000000     0.862000000
C     1.367000000    -0.208000000     0.730000000
H     2.244000000    -0.441000000     1.329000000
C     1.133000000     1.129000000     0.246000000
C     2.029000000     2.260000000     0.644000000
O     3.258000000     2.122000000     0.851000000
O     1.466000000     3.322000000     0.632000000
O     6.169000000     2.747000000     3.237000000
H     5.916000000     1.992000000     2.707000000
H     6.104000000     3.492000000     2.640000000
O    -5.265000000    -2.537000000    -5.110000000
H    -5.739000000    -1.778000000    -5.448000000
H    -4.474000000    -2.169000000    -4.716000000
O     1.275000000     7.744000000    -2.470000000
H     1.732000000     7.426000000    -3.249000000
H     1.062000000     6.952000000    -1.976000000
O    -2.967000000    -4.298000000    -4.209000000
H    -3.680000000    -4.550000000    -3.621000000
H    -2.225000000    -4.133000000    -3.627000000
O     1.211000000     3.735000000    -3.778000000
H     0.519000000     3.279000000    -4.256000000
H     1.937000000     3.787000000    -4.399000000
O     2.299000000     8.227000000     0.410000000
H     2.540000000     7.416000000     0.857000000
H     1.440000000     8.452000000     0.766000000
O     2.345000000    -4.312000000    -1.308000000
H     1.576000000    -4.507000000    -0.773000000
H     2.851000000    -5.125000000    -1.306000000
O    -2.084000000     4.841000000    -0.633000000
H    -1.198000000     4.943000000    -0.981000000
H    -2.624000000     5.409000000    -1.182000000
O     3.941000000    -0.726000000    -1.157000000
H     3.361000000    -1.185000000    -1.764000000
H     3.601000000     0.168000000    -1.131000000
O    -4.637000000     0.632000000     1.212000000
H    -3.826000000     1.056000000     1.490000000
H    -4.762000000    -0.081000000     1.839000000
O     4.223000000    -2.516000000     0.621000000
H     4.869000000    -3.133000000     0.278000000
H     3.980000000    -1.979000000    -0.133000000
O    -0.703000000     2.419000000    -5.550000000
H    -0.572000000     2.146000000    -6.458000000
H    -1.227000000     1.719000000    -5.162000000
O     4.390000000     5.438000000     3.153000000
H     4.991000000     6.099000000     2.809000000
H     4.584000000     5.401000000     4.089000000
O     2.756000000     1.695000000    -2.568000000
H     2.203000000     2.184000000    -3.177000000
H     3.047000000     2.349000000    -1.932000000
O     0.568000000    -1.191000000    -3.747000000
H     1.367000000    -1.043000000    -4.254000000
H     0.786000000    -0.893000000    -2.864000000
O    -3.697000000     3.241000000    -2.802000000
H    -3.953000000     3.923000000    -2.182000000
H    -2.927000000     3.597000000    -3.245000000
O     5.137000000    -0.386000000     3.924000000
H     4.239000000    -0.717000000     3.924000000
H     5.312000000    -0.168000000     3.009000000
O     0.119000000    -2.906000000     3.467000000
H     0.976000000    -2.483000000     3.412000000
H    -0.486000000    -2.194000000     3.676000000
O     3.168000000     3.129000000     3.502000000
H     3.201000000     2.716000000     2.639000000
H     3.369000000     4.050000000     3.334000000
O     1.037000000    -5.661000000    -4.284000000
H     0.376000000    -5.088000000    -3.895000000
H     1.596000000    -5.915000000    -3.549000000
O    -3.744000000    -0.861000000    -2.972000000
H    -4.209000000    -0.162000000    -2.512000000
H    -3.745000000    -1.594000000    -2.356000000
O    -1.850000000     0.375000000    -4.524000000
H    -1.146000000    -0.116000000    -4.101000000
H    -2.648000000     0.072000000    -4.089000000
O    -1.696000000    -6.045000000    -0.946000000
H    -2.164000000    -6.877000000    -0.870000000
H    -2.367000000    -5.415000000    -1.208000000
O     0.544000000    -5.317000000     0.389000000
H    -0.070000000    -5.970000000     0.052000000
H     0.360000000    -5.277000000     1.327000000
O     4.179000000     3.847000000    -0.996000000
H     3.761000000     3.201000000    -0.426000000
H     3.969000000     4.691000000    -0.595000000
O     0.617000000     5.098000000    -1.593000000
H     0.767000000     4.562000000    -2.372000000
H     1.235000000     4.759000000    -0.946000000
O     3.870000000    -6.509000000     1.908000000
H     3.333000000    -5.996000000     1.304000000
H     3.250000000    -7.100000000     2.336000000
O    -5.141000000    -1.027000000     3.970000000
H    -4.836000000    -1.928000000     4.072000000
H    -4.771000000    -0.563000000     4.722000000
O    -0.650000000    -4.043000000    -2.926000000
H    -0.313000000    -4.330000000    -2.077000000
H    -0.830000000    -3.110000000    -2.808000000
O    -4.254000000    -4.429000000    -1.457000000
H    -4.376000000    -4.301000000    -0.516000000
H    -5.136000000    -4.364000000    -1.824000000
O     6.995000000     4.412000000     0.974000000
H     6.788000000     5.186000000     0.450000000
H     7.641000000     3.936000000     0.453000000
O     3.403000000    -2.451000000    -3.231000000
H     2.911000000    -3.087000000    -2.711000000
H     4.038000000    -2.978000000    -3.715000000
O     2.719000000     5.566000000     1.183000000
H     3.185000000     5.610000000     2.018000000
H     2.268000000     4.722000000     1.205000000
O    -2.471000000     1.256000000     3.000000000
H    -2.295000000     0.332000000     3.177000000
H    -1.685000000     1.711000000     3.302000000
O    -1.546000000    -1.112000000     4.479000000
H    -1.267000000    -0.426000000     5.086000000
H    -1.821000000    -1.834000000     5.044000000
O    -3.497000000     4.055000000     1.659000000
H    -3.072000000     4.354000000     0.855000000
H    -4.395000000     3.857000000     1.396000000
O     4.808000000     1.879000000     5.471000000
H     4.889000000     1.059000000     4.984000000
H     5.177000000     2.541000000     4.887000000
O    -6.727000000    -1.720000000     0.358000000
H    -5.996000000    -2.310000000     0.543000000
H    -6.658000000    -1.540000000    -0.580000000
O    -0.711000000     3.712000000     2.427000000
H    -0.135000000     3.789000000     1.666000000
H    -1.592000000     3.842000000     2.075000000
O     5.377000000     0.511000000     1.458000000
H     4.745000000     1.192000000     1.226000000
H     5.008000000    -0.292000000     1.091000000
O    -0.282000000    -5.518000000     3.143000000
H    -0.291000000    -4.612000000     3.450000000
H     0.162000000    -6.003000000     3.839000000
O     0.753000000     3.407000000     4.592000000
H     1.572000000     3.073000000     4.227000000
H     0.114000000     3.295000000     3.888000000
O    -5.353000000    -4.194000000     0.998000000
H    -5.903000000    -4.946000000     1.216000000
H    -4.613000000    -4.256000000     1.602000000
O     3.156000000    -1.987000000     3.254000000
H     3.069000000    -2.705000000     3.881000000
H     3.584000000    -2.383000000     2.495000000
O     6.526000000     2.924000000    -2.303000000
H     5.744000000     3.405000000    -2.031000000
H     7.108000000     2.965000000    -1.545000000
O    -5.258000000     0.979000000    -1.680000000
H    -5.406000000     0.840000000    -0.745000000
H    -4.947000000     1.882000000    -1.742000000
O    -0.789000000    -2.632000000    -6.235000000
H    -0.693000000    -2.378000000    -5.317000000
H    -0.212000000    -3.389000000    -6.336000000
O    -3.993000000    -5.796000000     3.152000000
H    -3.136000000    -6.043000000     2.806000000
H    -4.211000000    -6.492000000     3.772000000
