161
-3022.38698
C    -0.612000000     0.899000000    -1.004000000
H    -1.134000000     1.575000000    -1.676000000
C    -1.155000000    -0.295000000    -0.636000000
H    -2.095000000    -0.612000000    -1.081000000
C    -0.423000000    -1.153000000     0.242000000
C    -0.956000000    -2.494000000     0.673000000
H    -2.042000000    -2.378000000     0.683000000
H    -0.448000000    -3.328000000     0.184000000
H    -0.664000000    -2.622000000     1.717000000
C     0.785000000    -0.716000000     0.747000000
H     1.366000000    -1.400000000     1.359000000
C     1.302000000     0.568000000     0.455000000
H     2.192000000     0.889000000     0.991000000
C     0.557000000     1.443000000    -0.422000000
C     0.988000000     2.853000000    -0.677000000
O     1.781000000     3.328000000     0.067000000
O     0.551000000     3.438000000    -1.618000000
O     6.402000000     2.620000000    -1.132000000
H     6.035000000     2.081000000    -0.432000000
H     6.025000000     2.261000000    -1.935000000
O    -1.802000000    -7.060000000    -1.887000000
H    -2.630000000    -6.670000000    -1.604000000
H    -1.144000000    -6.664000000    -1.315000000
O    -0.416000000     2.528000000    -6.704000000
H     0.203000000     2.860000000    -6.054000000
H    -1.172000000     2.244000000    -6.192000000
O     4.288000000    -3.639000000     0.199000000
H     3.767000000    -3.732000000     0.996000000
H     4.770000000    -4.463000000     0.129000000
O    -2.470000000     1.964000000     4.464000000
H    -2.581000000     1.292000000     5.136000000
H    -1.961000000     1.534000000     3.777000000
O    -5.683000000     3.746000000     0.584000000
H    -4.795000000     3.392000000     0.533000000
H    -5.620000000     4.610000000     0.177000000
O    -6.279000000    -2.364000000     1.051000000
H    -5.838000000    -2.267000000     1.895000000
H    -7.041000000    -2.911000000     1.241000000
O     2.670000000    -6.737000000    -0.058000000
H     2.729000000    -6.048000000     0.605000000
H     2.751000000    -6.274000000    -0.892000000
O     2.365000000     1.877000000    -3.158000000
H     1.830000000     1.137000000    -3.444000000
H     1.742000000     2.483000000    -2.758000000
O    -4.462000000     3.471000000    -2.964000000
H    -5.134000000     3.527000000    -3.643000000
H    -4.264000000     4.382000000    -2.748000000
O    -2.228000000     3.901000000    -0.407000000
H    -1.504000000     4.066000000    -1.011000000
H    -2.718000000     4.723000000    -0.390000000
O     2.042000000     0.965000000     3.548000000
H     2.029000000     1.620000000     4.246000000
H     2.709000000     1.278000000     2.937000000
O     5.411000000     1.088000000     0.875000000
H     4.772000000     1.709000000     1.225000000
H     6.026000000     0.947000000     1.595000000
O     2.336000000    -1.577000000     4.341000000
H     2.344000000    -0.750000000     3.859000000
H     1.409000000    -1.811000000     4.399000000
O     0.390000000     6.602000000    -5.202000000
H    -0.028000000     7.421000000    -4.935000000
H     1.212000000     6.583000000    -4.713000000
O     1.588000000    -7.059000000     3.490000000
H     1.843000000    -7.398000000     4.348000000
H     0.782000000    -6.569000000     3.656000000
O     0.334000000     4.166000000     5.432000000
H     0.436000000     4.098000000     4.482000000
H    -0.581000000     3.936000000     5.591000000
O    -4.659000000    -5.703000000     1.661000000
H    -4.387000000    -5.060000000     2.316000000
H    -4.869000000    -6.487000000     2.168000000
O    -3.689000000    -1.180000000    -3.187000000
H    -4.215000000    -0.381000000    -3.168000000
H    -4.015000000    -1.699000000    -2.451000000
O     0.599000000    -2.193000000    -4.021000000
H     1.440000000    -2.590000000    -4.247000000
H     0.521000000    -2.318000000    -3.075000000
O     0.747000000     4.295000000     2.385000000
H     1.097000000     3.994000000     1.547000000
H    -0.196000000     4.151000000     2.318000000
O     2.773000000    -4.954000000     2.088000000
H     2.944000000    -4.321000000     2.786000000
H     2.485000000    -5.744000000     2.546000000
O     4.087000000     4.609000000    -1.426000000
H     3.652000000     3.857000000    -1.024000000
H     3.510000000     4.863000000    -2.146000000
O    -0.243000000    -6.739000000     0.301000000
H     0.705000000    -6.822000000     0.405000000
H    -0.609000000    -7.256000000     1.019000000
O     0.546000000     3.832000000    -4.129000000
H     0.881000000     4.659000000    -4.476000000
H     0.314000000     4.030000000    -3.222000000
O     2.863000000     5.759000000    -3.942000000
H     3.512000000     6.454000000    -3.831000000
H     3.218000000     5.210000000    -4.641000000
O    -2.543000000     2.252000000    -4.959000000
H    -3.370000000     2.437000000    -5.405000000
H    -2.681000000     2.557000000    -4.063000000
O    -4.125000000    -5.794000000    -1.018000000
H    -4.905000000    -6.244000000    -1.343000000
H    -4.122000000    -5.971000000    -0.077000000
O    -1.973000000    -2.620000000    -4.951000000
H    -2.545000000    -1.889000000    -4.719000000
H    -1.212000000    -2.520000000    -4.380000000
O     4.199000000    -0.427000000    -2.994000000
H     3.633000000     0.323000000    -2.811000000
H     4.434000000    -0.766000000    -2.130000000
O     0.047000000     0.466000000    -4.332000000
H    -0.755000000     0.989000000    -4.321000000
H    -0.252000000    -0.427000000    -4.501000000
O     0.576000000     6.970000000     1.210000000
H    -0.274000000     6.765000000     1.600000000
H     0.732000000     6.259000000     0.589000000
O    -0.676000000     0.976000000     2.840000000
H    -0.532000000     0.615000000     1.965000000
H     0.204000000     1.151000000     3.174000000
O     5.179000000     1.437000000     4.917000000
H     5.077000000     1.593000000     3.979000000
H     5.603000000     2.229000000     5.248000000
O    -3.300000000     1.528000000     0.477000000
H    -2.772000000     0.899000000    -0.016000000
H    -2.894000000     2.375000000     0.297000000
O    -1.572000000    -5.947000000     3.500000000
H    -1.850000000    -6.534000000     2.797000000
H    -1.961000000    -5.102000000     3.274000000
O    -4.828000000    -1.540000000     3.311000000
H    -4.780000000    -0.584000000     3.275000000
H    -5.282000000    -1.725000000     4.133000000
O     1.456000000     5.996000000    -1.427000000
H     1.680000000     6.096000000    -2.352000000
H     1.219000000     5.073000000    -1.337000000
O     5.220000000    -1.068000000    -0.684000000
H     4.994000000    -1.838000000    -0.162000000
H     5.196000000    -0.341000000    -0.063000000
O     3.636000000     2.742000000     2.009000000
H     3.382000000     3.206000000     2.807000000
H     3.023000000     3.056000000     1.344000000
O     3.013000000    -4.300000000     4.918000000
H     2.535000000    -3.471000000     4.960000000
H     3.866000000    -4.103000000     5.304000000
O     2.994000000     8.202000000    -0.754000000
H     2.818000000     8.491000000     0.142000000
H     2.720000000     7.285000000    -0.768000000
O    -4.924000000    -3.083000000    -1.332000000
H    -4.576000000    -3.974000000    -1.307000000
H    -5.255000000    -2.930000000    -0.447000000
O    -5.137000000     0.947000000    -2.090000000
H    -4.829000000     1.850000000    -2.019000000
H    -5.438000000     0.726000000    -1.208000000
O    -2.392000000     6.729000000    -1.217000000
H    -2.233000000     7.669000000    -1.132000000
H    -2.627000000     6.608000000    -2.137000000
O     2.958000000     4.844000000     3.854000000
H     2.121000000     4.903000000     3.393000000
H     3.186000000     5.751000000     4.054000000
O    -3.015000000    -3.648000000     3.685000000
H    -3.581000000    -2.907000000     3.471000000
H    -2.921000000    -3.610000000     4.637000000
O    -4.619000000     1.121000000     2.994000000
H    -4.476000000     1.250000000     2.056000000
H    -3.739000000     1.100000000     3.370000000
