161
-3093.49038
C    -1.162000000     0.909000000     0.109000000
H    -2.049000000     1.508000000    -0.078000000
C    -1.259000000    -0.468000000    -0.022000000
H    -2.215000000    -0.982000000    -0.085000000
C    -0.079000000    -1.246000000    -0.029000000
C    -0.074000000    -2.770000000    -0.290000000
H    -1.087000000    -3.171000000    -0.369000000
H     0.522000000    -2.956000000    -1.186000000
H     0.433000000    -3.265000000     0.540000000
C     1.147000000    -0.578000000     0.069000000
H     2.084000000    -1.119000000    -0.039000000
C     1.176000000     0.786000000     0.192000000
H     2.148000000     1.250000000     0.334000000
C     0.020000000     1.610000000     0.184000000
C     0.106000000     3.111000000     0.224000000
O     1.122000000     3.567000000    -0.223000000
O    -0.827000000     3.809000000     0.672000000
O    -4.216000000    -1.192000000    -3.677000000
H    -3.685000000    -0.396000000    -3.681000000
H    -4.151000000    -1.519000000    -2.779000000
O     5.412000000     1.046000000    -1.509000000
H     5.955000000     1.304000000    -0.764000000
H     4.644000000     1.615000000    -1.454000000
O    -3.282000000     1.972000000    -3.188000000
H    -3.712000000     2.456000000    -3.893000000
H    -3.620000000     2.367000000    -2.385000000
O    -1.111000000    -1.517000000    -3.475000000
H    -1.740000000    -1.771000000    -4.150000000
H    -1.193000000    -2.194000000    -2.803000000
O    -2.459000000     5.267000000    -1.152000000
H    -1.852000000     4.777000000    -0.597000000
H    -2.080000000     5.209000000    -2.029000000
O     3.499000000    -2.836000000     2.309000000
H     2.613000000    -2.580000000     2.568000000
H     3.405000000    -3.149000000     1.410000000
O     1.376000000     5.618000000     3.649000000
H     1.845000000     4.820000000     3.406000000
H     2.011000000     6.321000000     3.514000000
O     6.158000000    -3.706000000    -0.150000000
H     5.239000000    -3.484000000    -0.298000000
H     6.168000000    -4.661000000    -0.089000000
O     0.090000000     6.653000000    -3.368000000
H     0.058000000     7.598000000    -3.518000000
H     0.343000000     6.565000000    -2.449000000
O     3.232000000     2.658000000    -1.365000000
H     2.931000000     2.120000000    -2.097000000
H     2.443000000     3.102000000    -1.054000000
O    -4.531000000     2.799000000     0.926000000
H    -4.003000000     2.598000000     0.153000000
H    -4.200000000     3.645000000     1.229000000
O     3.234000000    -4.170000000     0.006000000
H     2.489000000    -4.579000000     0.446000000
H     2.880000000    -3.864000000    -0.829000000
O    -6.934000000     1.859000000     1.918000000
H    -6.175000000     2.322000000     1.564000000
H    -7.266000000     1.346000000     1.182000000
O     1.005000000    -5.477000000     4.355000000
H     1.553000000    -6.085000000     3.859000000
H     0.747000000    -5.969000000     5.135000000
O    -1.057000000     5.847000000     2.396000000
H    -0.221000000     6.083000000     2.798000000
H    -0.841000000     5.135000000     1.794000000
O    -0.669000000    -7.886000000     0.442000000
H    -1.069000000    -8.635000000     0.884000000
H    -1.369000000    -7.528000000    -0.104000000
O    -1.282000000    -0.276000000     3.324000000
H    -0.593000000    -0.345000000     3.985000000
H    -1.181000000     0.606000000     2.964000000
O     1.243000000     1.972000000     4.129000000
H     1.962000000     1.341000000     4.151000000
H     1.572000000     2.692000000     3.591000000
O     5.341000000     2.750000000     1.912000000
H     4.793000000     1.970000000     1.991000000
H     6.221000000     2.448000000     2.134000000
O    -2.419000000    -4.428000000    -2.383000000
H    -3.106000000    -3.821000000    -2.109000000
H    -2.443000000    -5.127000000    -1.730000000
O    -4.115000000     2.138000000     4.133000000
H    -3.852000000     1.558000000     4.848000000
H    -3.353000000     2.164000000     3.554000000
O    -3.182000000    -6.399000000    -0.536000000
H    -3.418000000    -5.863000000     0.221000000
H    -4.001000000    -6.825000000    -0.791000000
O     3.312000000     6.548000000    -1.057000000
H     3.724000000     7.142000000    -0.430000000
H     4.019000000     5.966000000    -1.336000000
O    -4.635000000    -0.811000000     0.771000000
H    -5.006000000    -0.864000000     1.652000000
H    -5.110000000    -0.092000000     0.354000000
O    -4.408000000    -2.906000000    -1.064000000
H    -5.351000000    -3.071000000    -1.063000000
H    -4.264000000    -2.339000000    -0.306000000
O     2.620000000     3.605000000     2.323000000
H     2.145000000     3.581000000     1.492000000
H     3.543000000     3.594000000     2.071000000
O     0.534000000     6.401000000    -0.624000000
H     0.363000000     5.532000000    -0.263000000
H     1.479000000     6.417000000    -0.774000000
O     1.108000000    -3.509000000    -5.508000000
H     0.226000000    -3.727000000    -5.810000000
H     1.093000000    -3.697000000    -4.569000000
O     5.372000000     4.099000000    -0.555000000
H     4.622000000     3.847000000    -1.094000000
H     5.278000000     3.580000000     0.244000000
O    -0.233000000    -5.111000000    -3.869000000
H    -0.937000000    -4.733000000    -3.341000000
H    -0.573000000    -5.963000000    -4.146000000
O    -4.238000000    -4.141000000    -4.595000000
H    -3.559000000    -4.379000000    -3.964000000
H    -4.194000000    -3.186000000    -4.644000000
O    -3.783000000    -5.219000000     1.843000000
H    -3.349000000    -4.404000000     2.096000000
H    -4.715000000    -5.003000000     1.844000000
O    -4.908000000     3.896000000    -1.929000000
H    -5.568000000     4.281000000    -1.352000000
H    -4.179000000     4.516000000    -1.906000000
O    -0.434000000    -3.083000000     4.146000000
H    -0.787000000    -3.027000000     3.258000000
H     0.150000000    -3.841000000     4.125000000
O    -6.372000000     1.498000000    -1.191000000
H    -6.756000000     1.549000000    -2.066000000
H    -6.066000000     2.387000000    -1.011000000
O     2.515000000    -1.637000000    -3.353000000
H     2.247000000    -2.522000000    -3.105000000
H     2.468000000    -1.632000000    -4.309000000
O    -0.733000000     1.173000000    -3.466000000
H    -1.592000000     1.376000000    -3.094000000
H    -0.704000000     0.216000000    -3.492000000
O    -3.762000000     4.828000000     2.526000000
H    -2.884000000     5.080000000     2.813000000
H    -4.018000000     4.128000000     3.126000000
O    -1.680000000     2.460000000     2.898000000
H    -0.916000000     2.639000000     3.447000000
H    -1.600000000     3.076000000     2.169000000
O     4.724000000    -0.207000000     2.246000000
H     4.257000000    -1.042000000     2.228000000
H     5.538000000    -0.377000000     1.773000000
O     4.323000000    -1.591000000    -1.484000000
H     4.750000000    -0.738000000    -1.409000000
H     3.668000000    -1.472000000    -2.171000000
O     1.024000000    -5.975000000     0.206000000
H     1.685000000    -6.662000000     0.122000000
H     0.219000000    -6.443000000     0.429000000
O     2.370000000    -4.172000000    -2.559000000
H     3.024000000    -4.709000000    -3.006000000
H     1.631000000    -4.764000000    -2.415000000
O    -0.182000000     8.819000000     1.353000000
H    -0.726000000     9.069000000     2.100000000
H    -0.256000000     7.866000000     1.310000000
O     3.482000000     0.511000000     4.495000000
H     4.036000000     0.078000000     5.144000000
H     4.011000000     0.522000000     3.697000000
O     1.989000000     0.980000000    -3.319000000
H     1.047000000     1.121000000    -3.420000000
H     2.084000000     0.030000000    -3.260000000
O    -2.594000000    -2.507000000     1.890000000
H    -3.373000000    -2.162000000     1.453000000
H    -2.188000000    -1.741000000     2.295000000
O    -3.020000000     7.137000000     0.999000000
H    -3.182000000     6.539000000     0.269000000
H    -2.418000000     6.659000000     1.571000000
