161
-3021.35301
C    -1.177000000     0.945000000    -0.101000000
H    -2.025000000     1.588000000    -0.320000000
C    -1.268000000    -0.473000000    -0.294000000
H    -2.201000000    -1.014000000    -0.438000000
C    -0.154000000    -1.279000000    -0.084000000
C    -0.072000000    -2.725000000    -0.339000000
H    -0.055000000    -3.179000000     0.654000000
H    -0.939000000    -3.008000000    -0.940000000
H     0.880000000    -2.939000000    -0.830000000
C     1.087000000    -0.635000000     0.285000000
H     2.008000000    -1.211000000     0.340000000
C     1.131000000     0.799000000     0.476000000
H     2.146000000     1.146000000     0.648000000
C    -0.007000000     1.603000000     0.276000000
C     0.112000000     3.073000000     0.294000000
O     1.094000000     3.583000000     0.794000000
O    -0.564000000     3.722000000    -0.421000000
O     1.772000000    -5.392000000    -5.596000000
H     0.938000000    -5.208000000    -6.026000000
H     1.849000000    -4.717000000    -4.922000000
O    -1.569000000     1.828000000    -5.552000000
H    -1.343000000     2.148000000    -4.678000000
H    -2.071000000     2.542000000    -5.945000000
O     1.893000000     0.115000000    -4.908000000
H     1.504000000     0.879000000    -5.334000000
H     1.441000000     0.054000000    -4.067000000
O    -0.829000000     2.797000000    -3.105000000
H    -0.966000000     3.120000000    -2.214000000
H    -0.109000000     2.172000000    -3.026000000
O     1.787000000    -2.511000000     2.637000000
H     2.266000000    -1.786000000     2.235000000
H     2.340000000    -2.786000000     3.369000000
O     2.705000000     8.203000000     1.743000000
H     2.195000000     7.427000000     1.511000000
H     3.220000000     8.393000000     0.959000000
O     0.776000000     4.960000000    -4.790000000
H     1.268000000     5.679000000    -5.186000000
H     0.570000000     5.268000000    -3.908000000
O     5.393000000     5.933000000    -0.699000000
H     4.437000000     5.983000000    -0.688000000
H     5.583000000     5.008000000    -0.854000000
O    -4.131000000     2.857000000    -1.865000000
H    -3.477000000     2.916000000    -2.561000000
H    -4.419000000     3.759000000    -1.729000000
O    -2.381000000     5.593000000     3.480000000
H    -1.673000000     6.034000000     3.950000000
H    -2.050000000     5.492000000     2.588000000
O    -3.533000000     4.886000000    -3.663000000
H    -3.294000000     5.678000000    -3.181000000
H    -3.010000000     4.926000000    -4.463000000
O     4.479000000    -2.669000000     3.364000000
H     4.788000000    -2.717000000     4.269000000
H     4.948000000    -3.372000000     2.914000000
O    -3.763000000    -1.774000000     1.859000000
H    -3.589000000    -1.134000000     2.549000000
H    -3.764000000    -1.261000000     1.051000000
O     0.513000000     5.713000000    -2.362000000
H     1.238000000     5.299000000    -1.894000000
H    -0.272000000     5.294000000    -2.008000000
O     5.075000000     0.100000000     3.042000000
H     4.846000000    -0.770000000     2.714000000
H     4.282000000     0.406000000     3.484000000
O    -0.735000000    -1.942000000     3.655000000
H     0.146000000    -2.238000000     3.425000000
H    -1.263000000    -2.140000000     2.882000000
O     2.548000000     5.036000000     4.139000000
H     2.410000000     4.946000000     5.082000000
H     3.412000000     5.442000000     4.061000000
O    -0.626000000    -6.697000000    -2.241000000
H    -1.573000000    -6.824000000    -2.307000000
H    -0.387000000    -7.106000000    -1.410000000
O    -6.445000000     0.317000000     2.126000000
H    -7.247000000     0.477000000     1.629000000
H    -5.741000000     0.608000000     1.547000000
O    -4.200000000     1.770000000     1.488000000
H    -3.686000000     1.717000000     2.294000000
H    -4.789000000     2.512000000     1.628000000
O    -4.738000000    -2.171000000    -1.891000000
H    -5.233000000    -2.537000000    -1.158000000
H    -5.224000000    -1.384000000    -2.138000000
O     4.637000000    -2.832000000    -0.392000000
H     4.531000000    -3.770000000    -0.549000000
H     4.066000000    -2.415000000    -1.037000000
O    -4.783000000    -4.772000000    -2.999000000
H    -5.163000000    -5.005000000    -2.152000000
H    -4.632000000    -3.828000000    -2.942000000
O     1.975000000    -4.879000000     1.037000000
H     1.105000000    -5.277000000     1.053000000
H     1.856000000    -4.025000000     1.453000000
O     1.184000000     6.022000000     1.644000000
H     1.299000000     5.252000000     1.088000000
H     1.568000000     5.771000000     2.484000000
O     2.784000000     4.589000000    -1.058000000
H     3.483000000     3.941000000    -1.144000000
H     2.243000000     4.263000000    -0.338000000
O    -0.295000000    -2.118000000    -4.797000000
H    -0.458000000    -2.927000000    -5.281000000
H     0.659000000    -2.043000000    -4.770000000
O     2.081000000    -3.632000000    -3.583000000
H     2.117000000    -4.235000000    -2.841000000
H     2.911000000    -3.156000000    -3.545000000
O     2.059000000    -5.770000000    -1.656000000
H     1.134000000    -5.938000000    -1.839000000
H     2.077000000    -5.507000000    -0.735000000
O    -4.865000000    -3.582000000     3.390000000
H    -4.439000000    -2.952000000     2.808000000
H    -4.241000000    -3.708000000     4.104000000
O    -4.783000000     5.532000000    -0.436000000
H    -5.399000000     6.256000000    -0.328000000
H    -4.166000000     5.839000000    -1.100000000
O    -0.436000000     1.180000000     4.477000000
H    -0.614000000     0.509000000     3.817000000
H     0.429000000     1.519000000     4.248000000
O    -5.646000000     0.611000000    -1.090000000
H    -4.695000000     0.643000000    -1.196000000
H    -5.875000000     1.463000000    -0.720000000
O    -2.797000000    -1.065000000    -3.397000000
H    -1.969000000    -1.498000000    -3.606000000
H    -3.226000000    -1.655000000    -2.777000000
O     6.271000000     1.005000000    -1.312000000
H     6.516000000     0.142000000    -0.979000000
H     6.074000000     0.859000000    -2.237000000
O     0.320000000     0.395000000    -2.718000000
H     0.589000000     0.226000000    -1.815000000
H    -0.549000000    -0.001000000    -2.787000000
O    -1.312000000     5.938000000     1.038000000
H    -1.254000000     5.278000000     0.347000000
H    -0.409000000     6.057000000     1.332000000
O     0.389000000     8.634000000    -1.818000000
H     0.492000000     7.705000000    -1.615000000
H    -0.383000000     8.672000000    -2.384000000
O     6.175000000     1.915000000     1.376000000
H     6.126000000     1.667000000     0.452000000
H     5.595000000     1.297000000     1.821000000
O    -0.990000000    -6.075000000     0.985000000
H    -1.657000000    -5.388000000     0.991000000
H    -1.428000000    -6.829000000     0.590000000
O     2.697000000     0.699000000     4.319000000
H     2.277000000     0.532000000     5.163000000
H     2.332000000     1.535000000     4.031000000
O     7.027000000    -1.414000000    -0.114000000
H     6.221000000    -1.899000000    -0.292000000
H     7.262000000    -1.661000000     0.780000000
O     4.286000000    -1.613000000    -3.525000000
H     5.182000000    -1.275000000    -3.544000000
H     3.764000000    -0.932000000    -3.950000000
O    -2.823000000     6.930000000    -1.991000000
H    -2.998000000     7.483000000    -1.230000000
H    -2.560000000     7.543000000    -2.677000000
O     1.614000000     2.794000000     3.317000000
H     1.874000000     3.638000000     3.685000000
H     1.456000000     2.974000000     2.390000000
O     5.175000000     3.360000000    -1.831000000
H     5.592000000     2.518000000    -1.648000000
H     4.892000000     3.293000000    -2.743000000
O    -3.161000000    -4.585000000     1.214000000
H    -4.031000000    -4.924000000     1.001000000
H    -3.270000000    -4.163000000     2.066000000
O     3.856000000    -6.979000000     1.140000000
H     3.095000000    -6.402000000     1.073000000
H     4.555000000    -6.506000000     0.688000000
