161
-3058.18934
C     0.281000000     1.447000000    -0.032000000
H     0.621000000     2.479000000    -0.062000000
C     0.572000000     0.553000000     1.065000000
H     1.042000000     0.854000000     1.998000000
C     0.203000000    -0.752000000     0.943000000
C     0.514000000    -1.679000000     2.104000000
H     0.887000000    -1.238000000     3.031000000
H    -0.287000000    -2.366000000     2.385000000
H     1.245000000    -2.388000000     1.710000000
C    -0.500000000    -1.193000000    -0.221000000
H    -0.633000000    -2.271000000    -0.176000000
C    -0.763000000    -0.338000000    -1.257000000
H    -1.253000000    -0.706000000    -2.155000000
C    -0.184000000     0.958000000    -1.244000000
C    -0.475000000     1.916000000    -2.374000000
O    -0.945000000     1.580000000    -3.457000000
O    -0.328000000     3.145000000    -2.257000000
O    -2.781000000    -2.098000000    -3.835000000
H    -1.866000000    -1.827000000    -3.758000000
H    -2.924000000    -2.192000000    -4.777000000
O    -0.190000000    -0.464000000    -4.900000000
H    -0.497000000     0.270000000    -4.368000000
H    -0.219000000    -0.136000000    -5.799000000
O     4.316000000    -2.904000000     1.215000000
H     5.135000000    -3.032000000     0.737000000
H     3.750000000    -2.438000000     0.599000000
O    -0.540000000     1.367000000    -6.990000000
H     0.107000000     1.282000000    -7.691000000
H    -0.835000000     2.276000000    -7.045000000
O    -2.645000000     1.243000000     1.291000000
H    -3.231000000     1.755000000     0.735000000
H    -1.909000000     1.018000000     0.722000000
O    -3.257000000     0.903000000    -4.883000000
H    -3.835000000     0.630000000    -4.170000000
H    -2.491000000     1.272000000    -4.442000000
O    -1.920000000     4.485000000    -0.141000000
H    -1.862000000     3.915000000    -0.908000000
H    -2.174000000     5.337000000    -0.495000000
O    -1.290000000     4.204000000    -7.037000000
H    -1.333000000     4.877000000    -7.716000000
H    -0.557000000     4.472000000    -6.481000000
O    -3.426000000    -3.261000000    -1.172000000
H    -2.683000000    -3.829000000    -0.967000000
H    -3.359000000    -3.110000000    -2.115000000
O    -4.693000000     3.264000000    -3.638000000
H    -3.842000000     3.670000000    -3.474000000
H    -4.484000000     2.428000000    -4.053000000
O     4.711000000     1.938000000     1.361000000
H     4.650000000     2.368000000     2.214000000
H     5.635000000     1.707000000     1.274000000
O     4.291000000    -3.244000000     4.926000000
H     5.000000000    -3.582000000     4.380000000
H     4.200000000    -2.329000000     4.660000000
O    -3.727000000     3.461000000    -6.498000000
H    -2.826000000     3.749000000    -6.649000000
H    -3.653000000     2.520000000    -6.336000000
O    -4.309000000    -1.283000000     0.494000000
H    -4.274000000    -1.596000000     1.398000000
H    -4.109000000    -2.056000000    -0.034000000
O     0.388000000     4.216000000     5.538000000
H    -0.450000000     4.144000000     5.082000000
H     0.750000000     3.330000000     5.516000000
O    -5.002000000    -1.678000000     4.306000000
H    -5.727000000    -1.979000000     3.759000000
H    -4.297000000    -1.487000000     3.687000000
O     2.174000000    -7.702000000     2.274000000
H     2.321000000    -6.760000000     2.190000000
H     2.488000000    -8.069000000     1.447000000
O     3.137000000    -5.107000000     2.426000000
H     3.580000000    -4.336000000     2.073000000
H     3.742000000    -5.453000000     3.082000000
O    -0.123000000    -0.235000000     5.374000000
H    -0.580000000     0.526000000     5.017000000
H    -0.776000000    -0.674000000     5.919000000
O    -2.688000000     6.925000000    -1.309000000
H    -2.149000000     6.684000000    -2.062000000
H    -3.580000000     6.701000000    -1.571000000
O    -1.920000000    -4.988000000     0.204000000
H    -1.038000000    -4.923000000     0.570000000
H    -1.782000000    -5.216000000    -0.715000000
O    -0.566000000    -4.096000000    -2.474000000
H    -0.582000000    -4.956000000    -2.895000000
H     0.147000000    -3.630000000    -2.909000000
O     2.810000000     4.701000000     1.291000000
H     3.733000000     4.558000000     1.500000000
H     2.754000000     4.561000000     0.345000000
O     3.948000000     3.537000000    -3.463000000
H     3.140000000     3.190000000    -3.841000000
H     4.092000000     3.007000000    -2.679000000
O     2.987000000    -0.003000000    -4.712000000
H     2.911000000    -0.408000000    -5.576000000
H     2.391000000     0.745000000    -4.744000000
O    -2.327000000     4.409000000    -3.352000000
H    -1.622000000     3.817000000    -3.089000000
H    -1.877000000     5.183000000    -3.691000000
O    -4.062000000    -4.273000000     1.591000000
H    -4.168000000    -4.682000000     2.449000000
H    -3.170000000    -4.497000000     1.327000000
O    -5.050000000    -0.286000000    -2.864000000
H    -4.378000000    -0.920000000    -2.615000000
H    -5.861000000    -0.794000000    -2.890000000
O     2.208000000     1.448000000     5.624000000
H     1.556000000     0.757000000     5.505000000
H     2.311000000     1.518000000     6.573000000
O     0.252000000     3.949000000     2.192000000
H    -0.389000000     4.200000000     1.526000000
H     1.100000000     4.139000000     1.791000000
O    -1.468000000     6.897000000    -4.219000000
H    -0.573000000     7.034000000    -3.908000000
H    -1.525000000     7.416000000    -5.021000000
O     1.377000000    -1.978000000     7.011000000
H     1.049000000    -1.619000000     7.836000000
H     1.115000000    -1.337000000     6.350000000
O     1.437000000     7.214000000     2.088000000
H     1.682000000     6.348000000     1.763000000
H     1.219000000     7.072000000     3.009000000
O     4.927000000    -0.569000000     4.022000000
H     5.854000000    -0.667000000     3.803000000
H     4.489000000    -0.484000000     3.175000000
O     2.361000000    -1.855000000    -1.041000000
H     2.108000000    -2.231000000    -1.884000000
H     1.534000000    -1.590000000    -0.638000000
O     1.600000000     4.663000000    -1.492000000
H     2.192000000     3.912000000    -1.521000000
H     0.724000000     4.279000000    -1.529000000
O    -1.302000000     2.032000000     3.957000000
H    -0.494000000     2.283000000     3.509000000
H    -1.877000000     1.721000000     3.257000000
O     0.055000000    -3.204000000    -6.485000000
H    -0.161000000    -2.611000000    -5.765000000
H     0.747000000    -3.765000000    -6.135000000
O     1.315000000     6.792000000    -3.256000000
H     1.904000000     7.498000000    -2.987000000
H     1.493000000     6.084000000    -2.637000000
O     4.367000000     3.069000000     4.053000000
H     3.838000000     2.401000000     4.489000000
H     4.184000000     3.874000000     4.538000000
O    -2.377000000    -0.966000000     2.845000000
H    -2.490000000    -0.180000000     2.310000000
H    -1.497000000    -1.276000000     2.632000000
O    -5.391000000     1.294000000    -0.443000000
H    -5.200000000     0.509000000     0.071000000
H    -5.107000000     1.074000000    -1.330000000
O     1.744000000     2.790000000    -5.010000000
H     0.877000000     2.486000000    -4.742000000
H     1.581000000     3.632000000    -5.437000000
O     0.956000000     5.127000000    -5.806000000
H     1.246000000     5.687000000    -6.526000000
H     1.244000000     5.584000000    -5.016000000
O     1.389000000    -2.476000000    -3.910000000
H     1.160000000    -1.601000000    -4.224000000
H     2.033000000    -2.796000000    -4.542000000
O    -2.030000000    -2.164000000     6.450000000
H    -2.539000000    -2.259000000     5.644000000
H    -2.171000000    -2.986000000     6.920000000
O     3.330000000     2.612000000    -0.841000000
H     3.792000000     2.612000000    -0.003000000
H     2.782000000     1.828000000    -0.812000000
O     0.679000000    -5.421000000     1.036000000
H     0.956000000    -5.453000000     0.120000000
H     1.497000000    -5.418000000     1.534000000
