161
-3022.60116
C     0.624000000     0.880000000    -0.925000000
H     1.188000000     1.488000000    -1.627000000
C     1.023000000    -0.457000000    -0.638000000
H     1.850000000    -0.835000000    -1.233000000
C     0.245000000    -1.176000000     0.240000000
C     0.756000000    -2.535000000     0.547000000
H     0.692000000    -3.152000000    -0.352000000
H     1.778000000    -2.317000000     0.864000000
H     0.144000000    -2.950000000     1.351000000
C    -0.811000000    -0.653000000     0.909000000
H    -1.281000000    -1.280000000     1.662000000
C    -1.185000000     0.624000000     0.570000000
H    -2.055000000     1.041000000     1.071000000
C    -0.446000000     1.476000000    -0.285000000
C    -0.732000000     2.916000000    -0.619000000
O    -1.844000000     3.325000000    -0.404000000
O     0.062000000     3.602000000    -1.126000000
O    -2.461000000     7.438000000     0.882000000
H    -1.549000000     7.178000000     0.753000000
H    -2.561000000     7.499000000     1.832000000
O    -6.018000000     4.945000000    -3.282000000
H    -5.847000000     4.931000000    -4.223000000
H    -5.456000000     4.257000000    -2.926000000
O     2.556000000    -0.735000000     4.154000000
H     3.118000000    -1.038000000     3.441000000
H     2.617000000     0.220000000     4.117000000
O     0.767000000    -3.324000000    -4.402000000
H     0.338000000    -2.813000000    -3.716000000
H     1.147000000    -2.668000000    -4.987000000
O     2.995000000    -6.381000000    -0.534000000
H     2.687000000    -5.986000000     0.282000000
H     3.880000000    -6.685000000    -0.333000000
O    -2.031000000    -5.567000000     5.212000000
H    -2.333000000    -6.475000000     5.230000000
H    -1.210000000    -5.597000000     4.720000000
O    -1.752000000    -4.941000000    -3.625000000
H    -1.861000000    -4.000000000    -3.761000000
H    -1.344000000    -5.254000000    -4.432000000
O     2.545000000     5.332000000    -0.221000000
H     2.362000000     4.740000000    -0.951000000
H     3.497000000     5.437000000    -0.231000000
O     2.798000000     5.609000000    -3.258000000
H     2.729000000     5.517000000    -4.208000000
H     3.485000000     4.991000000    -3.007000000
O     1.016000000    -7.469000000    -2.445000000
H     1.711000000    -7.241000000    -1.827000000
H     1.356000000    -8.229000000    -2.918000000
O    -3.700000000     5.316000000    -0.553000000
H    -3.637000000     6.008000000     0.106000000
H    -2.821000000     4.937000000    -0.586000000
O     0.235000000     1.660000000     3.277000000
H     0.618000000     1.486000000     2.417000000
H     0.987000000     1.833000000     3.843000000
O    -1.409000000    -2.852000000     3.542000000
H    -2.216000000    -3.159000000     3.955000000
H    -1.067000000    -2.193000000     4.146000000
O    -5.206000000    -0.109000000     0.938000000
H    -4.757000000     0.736000000     0.973000000
H    -5.576000000    -0.220000000     1.813000000
O    -4.365000000     3.697000000     3.236000000
H    -4.516000000     4.575000000     2.888000000
H    -3.646000000     3.806000000     3.858000000
O    -2.055000000     0.349000000     4.594000000
H    -2.078000000     1.284000000     4.799000000
H    -1.408000000     0.273000000     3.893000000
O    -3.660000000    -3.062000000     4.914000000
H    -3.879000000    -2.296000000     4.383000000
H    -3.928000000    -2.823000000     5.801000000
O    -4.205000000     2.354000000     0.663000000
H    -4.325000000     2.908000000     1.434000000
H    -3.437000000     2.718000000     0.223000000
O    -1.562000000    -5.578000000    -0.796000000
H    -1.130000000    -5.037000000    -1.457000000
H    -2.463000000    -5.663000000    -1.107000000
O     4.280000000     3.508000000    -2.044000000
H     4.963000000     2.884000000    -2.290000000
H     3.461000000     3.072000000    -2.279000000
O    -2.337000000     0.058000000    -3.593000000
H    -3.193000000     0.481000000    -3.522000000
H    -1.708000000     0.778000000    -3.534000000
O    -4.348000000     7.098000000    -2.889000000
H    -5.198000000     6.797000000    -3.211000000
H    -4.088000000     6.437000000    -2.247000000
O    -3.290000000     2.604000000    -2.798000000
H    -2.941000000     2.833000000    -1.936000000
H    -4.087000000     2.108000000    -2.610000000
O     6.608000000    -2.990000000     2.447000000
H     5.732000000    -2.690000000     2.689000000
H     7.129000000    -2.876000000     3.242000000
O     3.265000000    -4.598000000     2.419000000
H     4.024000000    -5.171000000     2.526000000
H     3.308000000    -4.001000000     3.166000000
O     5.201000000    -0.208000000    -1.639000000
H     4.609000000     0.156000000    -2.297000000
H     4.962000000    -1.134000000    -1.587000000
O    -4.561000000    -0.654000000     3.998000000
H    -3.887000000    -0.237000000     4.534000000
H    -5.287000000    -0.030000000     3.998000000
O     2.842000000     4.816000000     2.938000000
H     3.336000000     5.604000000     3.165000000
H     2.577000000     4.953000000     2.028000000
O    -3.765000000    -2.476000000    -1.858000000
H    -3.012000000    -2.076000000    -1.423000000
H    -4.010000000    -3.206000000    -1.290000000
O     0.578000000     7.356000000    -4.308000000
H     0.970000000     6.817000000    -3.621000000
H     1.297000000     7.532000000    -4.914000000
O    -0.827000000     4.796000000     2.862000000
H    -0.330000000     3.984000000     2.962000000
H    -0.942000000     4.891000000     1.916000000
O     0.236000000    -1.474000000     5.697000000
H     0.349000000    -1.126000000     6.582000000
H     0.659000000    -0.829000000     5.130000000
O     4.642000000     1.467000000     2.044000000
H     5.349000000     2.069000000     1.810000000
H     3.843000000     1.922000000     1.778000000
O     2.350000000     2.275000000    -4.042000000
H     1.990000000     1.401000000    -4.194000000
H     1.582000000     2.829000000    -3.902000000
O     0.051000000     3.888000000    -3.688000000
H    -0.850000000     4.194000000    -3.795000000
H     0.209000000     3.934000000    -2.745000000
O     2.249000000     2.567000000     0.945000000
H     1.782000000     1.861000000     0.499000000
H     1.892000000     3.369000000     0.563000000
O     4.104000000    -3.375000000    -0.174000000
H     4.478000000    -4.084000000    -0.696000000
H     4.040000000    -3.736000000     0.710000000
O    -3.629000000    -2.713000000     1.019000000
H    -2.770000000    -2.964000000     1.357000000
H    -3.829000000    -1.887000000     1.459000000
O     3.062000000    -0.550000000    -3.906000000
H     2.493000000    -1.196000000    -4.324000000
H     3.702000000    -0.322000000    -4.580000000
O    -0.103000000     6.111000000     0.023000000
H     0.837000000     6.252000000     0.133000000
H    -0.172000000     5.225000000    -0.332000000
O    -5.116000000     0.614000000    -1.932000000
H    -5.833000000     1.232000000    -1.794000000
H    -5.064000000     0.120000000    -1.113000000
O    -0.628000000    -1.884000000    -2.705000000
H    -1.353000000    -1.387000000    -3.086000000
H    -0.188000000    -1.260000000    -2.128000000
O    -0.033000000     0.757000000    -5.456000000
H     0.800000000     0.900000000    -5.905000000
H    -0.484000000     0.103000000    -5.991000000
O     2.982000000    -3.284000000     4.807000000
H     3.859000000    -3.078000000     5.131000000
H     2.635000000    -2.444000000     4.506000000
O    -3.714000000    -6.600000000     1.679000000
H    -2.807000000    -6.332000000     1.827000000
H    -4.219000000    -6.099000000     2.319000000
O    -0.938000000    -6.508000000     1.720000000
H    -0.534000000    -5.784000000     2.198000000
H    -0.714000000    -6.345000000     0.804000000
O     4.213000000    -1.569000000     1.779000000
H     3.777000000    -1.945000000     1.014000000
H     4.537000000    -0.721000000     1.478000000
O     0.401000000    -4.837000000     3.475000000
H     1.244000000    -4.572000000     3.107000000
H    -0.127000000    -4.039000000     3.463000000
