161
-3083.66932
C     0.252000000     1.430000000     0.185000000
H     0.453000000     2.486000000     0.343000000
C     0.556000000     0.463000000     1.135000000
H     1.041000000     0.805000000     2.046000000
C     0.232000000    -0.907000000     0.861000000
C     0.695000000    -1.926000000     1.848000000
H     0.959000000    -1.422000000     2.780000000
H    -0.013000000    -2.740000000     2.014000000
H     1.604000000    -2.409000000     1.484000000
C    -0.295000000    -1.203000000    -0.391000000
H    -0.523000000    -2.228000000    -0.674000000
C    -0.575000000    -0.212000000    -1.297000000
H    -1.025000000    -0.529000000    -2.234000000
C    -0.347000000     1.111000000    -1.058000000
C    -0.926000000     2.130000000    -2.072000000
O    -1.302000000     1.872000000    -3.209000000
O    -0.787000000     3.281000000    -1.757000000
O    -1.684000000    -3.129000000    -4.313000000
H    -1.440000000    -2.206000000    -4.377000000
H    -1.015000000    -3.515000000    -3.747000000
O    -1.551000000    -0.387000000    -4.822000000
H    -1.489000000     0.417000000    -4.307000000
H    -2.211000000    -0.196000000    -5.488000000
O     4.762000000    -2.592000000     0.336000000
H     5.649000000    -2.333000000     0.086000000
H     4.305000000    -2.713000000    -0.496000000
O    -2.507000000     1.649000000    -6.887000000
H    -1.851000000     1.456000000    -7.556000000
H    -2.341000000     2.560000000    -6.644000000
O    -2.955000000     1.020000000     2.505000000
H    -2.388000000     0.735000000     1.789000000
H    -3.487000000     1.720000000     2.125000000
O    -4.130000000     0.790000000    -2.190000000
H    -4.402000000     0.094000000    -1.592000000
H    -3.307000000     0.475000000    -2.565000000
O    -1.713000000     5.414000000    -0.439000000
H    -1.505000000     4.604000000    -0.903000000
H    -2.664000000     5.496000000    -0.513000000
O     5.345000000    -6.537000000     1.691000000
H     4.763000000    -5.791000000     1.832000000
H     4.789000000    -7.304000000     1.829000000
O    -0.945000000     3.927000000    -7.029000000
H    -0.488000000     4.059000000    -7.860000000
H    -1.497000000     4.704000000    -6.934000000
O    -3.561000000    -5.356000000    -0.893000000
H    -3.864000000    -6.259000000    -0.995000000
H    -2.757000000    -5.431000000    -0.379000000
O     3.450000000    -3.366000000    -1.862000000
H     3.986000000    -3.635000000    -2.608000000
H     3.005000000    -2.573000000    -2.160000000
O    -3.760000000     3.449000000    -1.266000000
H    -4.046000000     2.540000000    -1.349000000
H    -3.364000000     3.655000000    -2.113000000
O     4.977000000     2.279000000     4.215000000
H     4.062000000     2.352000000     4.487000000
H     5.453000000     2.846000000     4.822000000
O     4.887000000     3.073000000     1.754000000
H     4.918000000     2.654000000     2.614000000
H     5.804000000     3.154000000     1.494000000
O     3.512000000    -0.926000000     4.204000000
H     3.061000000    -0.103000000     4.390000000
H     3.617000000    -0.932000000     3.252000000
O     0.691000000    -5.752000000     2.572000000
H     0.859000000    -6.483000000     1.978000000
H     1.105000000    -4.999000000     2.149000000
O    -4.798000000     1.486000000    -5.220000000
H    -3.894000000     1.600000000    -5.514000000
H    -4.731000000     1.389000000    -4.270000000
O    -5.019000000    -0.983000000    -0.437000000
H    -5.671000000    -1.452000000    -0.959000000
H    -4.570000000    -1.668000000     0.057000000
O     0.619000000    -5.697000000     5.317000000
H     0.738000000    -4.763000000     5.488000000
H     0.485000000    -5.752000000     4.371000000
O     3.421000000    -4.399000000     2.076000000
H     3.871000000    -3.819000000     1.462000000
H     3.423000000    -3.920000000     2.904000000
O    -0.833000000     1.838000000     4.466000000
H    -0.682000000     2.630000000     3.951000000
H    -1.463000000     1.334000000     3.951000000
O    -4.543000000     6.247000000    -2.591000000
H    -3.624000000     6.212000000    -2.856000000
H    -4.537000000     6.742000000    -1.772000000
O    -1.766000000    -6.348000000     1.182000000
H    -1.109000000    -6.052000000     1.812000000
H    -2.486000000    -6.674000000     1.723000000
O    -0.146000000    -4.418000000    -2.499000000
H    -0.579000000    -5.240000000    -2.731000000
H     0.428000000    -4.647000000    -1.768000000
O     2.215000000    -2.938000000     5.772000000
H     2.902000000    -2.405000000     5.372000000
H     1.398000000    -2.543000000     5.467000000
O     3.051000000     4.263000000     0.018000000
H     3.453000000     3.815000000     0.762000000
H     3.001000000     3.595000000    -0.666000000
O     2.856000000     2.876000000    -2.649000000
H     2.088000000     2.822000000    -3.218000000
H     3.416000000     2.154000000    -2.934000000
O     1.269000000    -0.408000000    -5.714000000
H     0.844000000    -0.851000000    -6.448000000
H     0.720000000     0.359000000    -5.547000000
O    -4.476000000     4.223000000    -6.290000000
H    -4.787000000     3.434000000    -6.734000000
H    -3.937000000     3.897000000    -5.570000000
O    -2.889000000     3.685000000    -4.193000000
H    -2.474000000     2.914000000    -3.805000000
H    -2.305000000     4.409000000    -3.971000000
O    -3.805000000    -3.021000000     0.736000000
H    -3.997000000    -3.494000000     1.546000000
H    -3.576000000    -3.706000000     0.108000000
O     2.079000000     1.274000000     4.622000000
H     1.173000000     1.575000000     4.694000000
H     2.394000000     1.245000000     5.525000000
O     0.719000000     5.343000000     1.132000000
H     0.021000000     5.461000000     0.488000000
H     1.445000000     4.968000000     0.632000000
O    -1.759000000     6.218000000    -3.089000000
H    -1.237000000     6.610000000    -3.789000000
H    -1.333000000     6.507000000    -2.282000000
O    -0.564000000    -2.525000000     5.257000000
H    -1.236000000    -3.178000000     5.450000000
H    -0.890000000    -1.720000000     5.660000000
O     1.391000000     6.598000000     3.486000000
H     1.183000000     6.034000000     2.741000000
H     1.992000000     7.252000000     3.130000000
O     4.020000000     0.268000000     1.385000000
H     4.885000000     0.203000000     0.982000000
H     3.911000000     1.201000000     1.572000000
O     2.486000000    -0.378000000    -1.294000000
H     1.546000000    -0.296000000    -1.131000000
H     2.894000000    -0.183000000    -0.451000000
O     0.905000000     5.552000000    -1.910000000
H     0.195000000     4.924000000    -1.781000000
H     1.701000000     5.021000000    -1.895000000
O    -0.751000000     4.080000000     2.901000000
H    -0.114000000     4.423000000     2.275000000
H    -1.420000000     3.662000000     2.358000000
O    -1.757000000    -0.262000000     6.291000000
H    -1.344000000     0.566000000     6.048000000
H    -2.685000000    -0.135000000     6.092000000
O     0.749000000     7.101000000    -4.341000000
H     1.563000000     7.108000000    -4.844000000
H     0.931000000     6.525000000    -3.599000000
O    -4.535000000     3.039000000     1.345000000
H    -5.387000000     2.970000000     0.913000000
H    -3.996000000     3.539000000     0.732000000
O     0.648000000     2.511000000    -5.387000000
H    -0.039000000     2.403000000    -4.729000000
H     0.252000000     3.069000000    -6.057000000
O     1.990000000    -1.859000000    -3.671000000
H     1.292000000    -1.914000000    -3.020000000
H     1.692000000    -1.189000000    -4.286000000
O     1.985000000     7.968000000    -0.985000000
H     2.756000000     7.538000000    -0.614000000
H     1.471000000     7.254000000    -1.363000000
O     3.967000000     0.448000000    -3.418000000
H     4.452000000    -0.143000000    -3.993000000
H     3.517000000    -0.131000000    -2.803000000
O     1.989000000    -4.876000000    -0.321000000
H     2.482000000    -4.929000000     0.497000000
H     2.610000000    -4.513000000    -0.952000000
