161
-3054.21733
C     0.281000000     1.090000000    -1.018000000
H     0.561000000     1.685000000    -1.883000000
C     0.480000000    -0.326000000    -1.202000000
H     0.909000000    -0.670000000    -2.139000000
C     0.102000000    -1.220000000    -0.168000000
C     0.217000000    -2.658000000    -0.210000000
H     0.959000000    -3.046000000     0.491000000
H    -0.706000000    -3.168000000     0.074000000
H     0.473000000    -3.023000000    -1.207000000
C    -0.358000000    -0.722000000     1.062000000
H    -0.554000000    -1.461000000     1.834000000
C    -0.603000000     0.648000000     1.183000000
H    -0.962000000     1.022000000     2.139000000
C    -0.217000000     1.543000000     0.145000000
C    -0.225000000     3.036000000     0.319000000
O    -0.223000000     3.647000000     1.358000000
O    -0.134000000     3.623000000    -0.781000000
O     0.755000000     7.435000000     3.266000000
H     0.348000000     7.328000000     4.126000000
H     0.144000000     7.019000000     2.658000000
O    -5.593000000     4.675000000     1.197000000
H    -5.891000000     5.292000000     1.864000000
H    -4.638000000     4.705000000     1.252000000
O    -1.627000000     6.312000000    -2.632000000
H    -1.044000000     6.560000000    -1.914000000
H    -1.539000000     5.361000000    -2.694000000
O     3.791000000     7.102000000    -1.385000000
H     3.247000000     6.533000000    -0.839000000
H     3.279000000     7.905000000    -1.477000000
O     2.404000000     5.420000000     0.099000000
H     1.586000000     4.930000000     0.015000000
H     2.675000000     5.281000000     1.006000000
O     4.805000000    -2.175000000     1.343000000
H     4.333000000    -1.472000000     0.897000000
H     5.547000000    -1.738000000     1.760000000
O     2.437000000     0.413000000     3.911000000
H     1.707000000     0.862000000     4.337000000
H     2.810000000     1.069000000     3.321000000
O    -0.508000000     6.313000000     1.165000000
H    -0.134000000     5.451000000     1.348000000
H     0.046000000     6.672000000     0.472000000
O     2.079000000    -1.520000000    -4.864000000
H     2.654000000    -0.905000000    -4.408000000
H     2.674000000    -2.076000000    -5.367000000
O     4.404000000    -3.309000000     4.247000000
H     4.252000000    -2.973000000     3.363000000
H     4.592000000    -4.239000000     4.121000000
O    -1.338000000    -4.035000000     2.753000000
H    -0.645000000    -3.598000000     3.249000000
H    -1.692000000    -3.352000000     2.184000000
O     2.926000000    -4.925000000    -2.252000000
H     2.188000000    -4.462000000    -2.649000000
H     2.547000000    -5.741000000    -1.923000000
O     0.864000000    -7.179000000     3.422000000
H     1.370000000    -7.881000000     3.014000000
H     0.968000000    -6.433000000     2.831000000
O     1.460000000    -4.881000000     1.958000000
H     0.573000000    -4.548000000     2.090000000
H     1.424000000    -5.332000000     1.114000000
O    -3.838000000     2.424000000    -0.567000000
H    -3.725000000     3.122000000     0.077000000
H    -4.400000000     1.784000000    -0.131000000
O     0.269000000     1.838000000    -4.897000000
H     0.495000000     1.002000000    -5.306000000
H     1.085000000     2.138000000    -4.498000000
O     3.948000000     0.005000000    -3.394000000
H     4.027000000     0.499000000    -2.578000000
H     4.376000000    -0.831000000    -3.210000000
O    -3.682000000     2.108000000     3.288000000
H    -4.374000000     1.776000000     3.859000000
H    -3.943000000     1.831000000     2.409000000
O    -3.321000000    -2.054000000     1.250000000
H    -3.768000000    -2.121000000     2.093000000
H    -3.668000000    -2.783000000     0.736000000
O    -2.273000000    -1.115000000    -6.025000000
H    -2.257000000    -1.526000000    -5.161000000
H    -1.372000000    -1.184000000    -6.340000000
O    -3.170000000    -0.058000000     4.815000000
H    -2.326000000    -0.072000000     5.267000000
H    -3.159000000     0.757000000     4.313000000
O     3.567000000     2.464000000     2.566000000
H     3.142000000     2.796000000     1.775000000
H     3.840000000     3.249000000     3.040000000
O    -4.851000000    -3.434000000    -0.718000000
H    -5.506000000    -4.127000000    -0.798000000
H    -4.774000000    -3.074000000    -1.601000000
O    -4.527000000     0.302000000     1.275000000
H    -3.872000000    -0.284000000     0.897000000
H    -5.314000000    -0.236000000     1.352000000
O    -2.240000000     3.392000000    -2.417000000
H    -1.575000000     3.361000000    -1.729000000
H    -3.031000000     3.051000000    -2.000000000
O    -1.419000000     3.821000000     3.794000000
H    -1.153000000     3.776000000     2.875000000
H    -2.217000000     3.295000000     3.838000000
O    -1.651000000    -2.568000000    -3.806000000
H    -1.972000000    -2.722000000    -2.917000000
H    -1.002000000    -3.258000000    -3.949000000
O     4.258000000     1.317000000    -1.044000000
H     5.131000000     1.617000000    -0.792000000
H     3.975000000     0.765000000    -0.315000000
O     4.424000000    -4.775000000     1.081000000
H     4.558000000    -3.850000000     0.874000000
H     3.627000000    -4.788000000     1.611000000
O     0.250000000    -1.242000000    -6.817000000
H     0.674000000    -1.874000000    -7.398000000
H     0.886000000    -1.096000000    -6.117000000
O    -3.319000000    -0.032000000    -2.259000000
H    -3.188000000     0.294000000    -1.369000000
H    -3.162000000     0.728000000    -2.819000000
O     2.947000000     5.865000000     2.765000000
H     2.056000000     6.178000000     2.612000000
H     3.114000000     6.058000000     3.688000000
O     4.034000000     3.071000000    -3.246000000
H     3.161000000     3.413000000    -3.055000000
H     4.169000000     2.382000000    -2.595000000
O     1.511000000     3.968000000    -2.917000000
H     1.320000000     4.870000000    -3.175000000
H     0.871000000     3.774000000    -2.232000000
O    -1.683000000     6.541000000     4.458000000
H    -1.511000000     5.655000000     4.139000000
H    -1.574000000     6.480000000     5.407000000
O     2.407000000    -1.608000000     5.608000000
H     2.406000000    -0.931000000     4.931000000
H     2.937000000    -2.315000000     5.239000000
O    -1.961000000     3.556000000    -5.086000000
H    -2.025000000     3.611000000    -4.133000000
H    -1.211000000     2.982000000    -5.243000000
O    -2.683000000    -5.219000000    -0.754000000
H    -2.897000000    -5.565000000    -1.621000000
H    -3.269000000    -4.470000000    -0.644000000
O     0.186000000    -2.624000000     4.294000000
H    -0.250000000    -1.904000000     4.750000000
H     1.040000000    -2.695000000     4.719000000
O     4.452000000    -2.487000000    -2.234000000
H     3.930000000    -3.288000000    -2.280000000
H     4.420000000    -2.234000000    -1.311000000
O    -4.550000000    -1.950000000     3.544000000
H    -5.348000000    -1.466000000     3.336000000
H    -3.937000000    -1.282000000     3.850000000
O    -3.042000000     4.732000000     0.759000000
H    -2.186000000     4.302000000     0.770000000
H    -2.870000000     5.615000000     1.087000000
O    -0.487000000    -0.303000000     5.751000000
H    -0.600000000    -0.378000000     6.699000000
H    -0.145000000     0.581000000     5.620000000
O    -3.458000000    -6.762000000     1.417000000
H    -3.763000000    -6.238000000     2.158000000
H    -3.212000000    -6.119000000     0.753000000
O     0.849000000    -3.965000000    -4.005000000
H     0.836000000    -4.412000000    -4.852000000
H     1.088000000    -3.062000000    -4.214000000
O     2.826000000    -0.244000000     0.982000000
H     1.999000000     0.048000000     0.599000000
H     2.587000000    -0.562000000     1.853000000
O    -0.117000000    -6.453000000     0.141000000
H    -0.839000000    -5.968000000    -0.259000000
H     0.239000000    -6.984000000    -0.571000000
O     0.452000000     2.291000000     5.245000000
H     0.847000000     2.735000000     5.996000000
H    -0.316000000     2.821000000     5.031000000
