161
-3017.27611
C     0.698000000    -0.932000000     1.055000000
H     1.206000000    -1.736000000     1.581000000
C     1.339000000    -0.163000000     0.034000000
H     2.409000000    -0.184000000    -0.157000000
C     0.552000000     0.579000000    -0.914000000
C     1.308000000     1.315000000    -1.989000000
H     1.702000000     2.253000000    -1.592000000
H     2.054000000     0.698000000    -2.494000000
H     0.559000000     1.665000000    -2.703000000
C    -0.778000000     0.706000000    -0.752000000
H    -1.299000000     1.307000000    -1.492000000
C    -1.422000000     0.102000000     0.265000000
H    -2.503000000     0.150000000     0.362000000
C    -0.720000000    -0.748000000     1.165000000
C    -1.536000000    -1.512000000     2.231000000
O    -2.633000000    -1.146000000     2.551000000
O    -0.931000000    -2.348000000     2.855000000
O    -4.978000000    -3.985000000     2.104000000
H    -4.209000000    -4.314000000     2.568000000
H    -5.505000000    -3.562000000     2.782000000
O    -1.858000000     0.719000000    -3.793000000
H    -2.284000000    -0.095000000    -3.525000000
H    -2.320000000     1.403000000    -3.307000000
O    -0.735000000    -6.459000000     3.621000000
H    -0.105000000    -6.204000000     4.296000000
H    -0.402000000    -7.292000000     3.286000000
O    -2.429000000     3.555000000     4.969000000
H    -2.840000000     2.933000000     4.368000000
H    -3.049000000     4.283000000     5.021000000
O     3.458000000     5.265000000     1.811000000
H     3.628000000     5.570000000     0.920000000
H     3.127000000     4.374000000     1.701000000
O    -0.548000000     2.595000000     2.525000000
H    -0.847000000     1.748000000     2.195000000
H    -0.581000000     2.506000000     3.478000000
O    -1.914000000     0.558000000     4.273000000
H    -2.300000000    -0.061000000     3.653000000
H    -2.640000000     0.809000000     4.844000000
O     6.518000000    -0.803000000    -0.847000000
H     7.152000000    -1.390000000    -1.260000000
H     6.202000000    -1.290000000    -0.086000000
O    -0.719000000     6.398000000    -0.410000000
H    -0.944000000     5.515000000    -0.703000000
H    -1.469000000     6.934000000    -0.667000000
O     0.731000000    -1.520000000    -3.602000000
H     0.741000000    -0.672000000    -4.046000000
H    -0.188000000    -1.664000000    -3.379000000
O    -6.914000000    -1.057000000    -2.153000000
H    -6.047000000    -1.110000000    -1.750000000
H    -6.739000000    -0.854000000    -3.072000000
O    -5.023000000    -2.353000000    -0.106000000
H    -5.111000000    -1.440000000     0.168000000
H    -5.120000000    -2.856000000     0.702000000
O     2.784000000     1.086000000    -7.230000000
H     2.653000000     0.771000000    -6.335000000
H     3.185000000     1.948000000    -7.124000000
O    -2.598000000     3.874000000    -4.222000000
H    -2.087000000     3.818000000    -5.029000000
H    -3.016000000     4.734000000    -4.262000000
O     1.292000000     6.976000000    -2.558000000
H     2.143000000     6.742000000    -2.189000000
H     0.665000000     6.773000000    -1.863000000
O    -4.963000000     3.008000000     0.027000000
H    -5.894000000     2.817000000     0.138000000
H    -4.699000000     3.402000000     0.858000000
O     0.327000000     0.913000000    -5.433000000
H    -0.534000000     0.842000000    -5.020000000
H     0.326000000     1.778000000    -5.842000000
O    -1.572000000    -4.881000000    -0.939000000
H    -2.460000000    -5.186000000    -0.753000000
H    -1.182000000    -4.738000000    -0.076000000
O     3.040000000    -5.308000000     3.220000000
H     3.096000000    -4.615000000     2.561000000
H     3.917000000    -5.690000000     3.240000000
O    -2.570000000    -4.126000000     3.677000000
H    -1.954000000    -4.848000000     3.807000000
H    -2.022000000    -3.390000000     3.404000000
O     2.033000000    -2.587000000    -1.385000000
H     1.516000000    -2.004000000    -0.830000000
H     1.678000000    -2.459000000    -2.264000000
O    -4.227000000     4.969000000    -1.541000000
H    -3.352000000     4.608000000    -1.684000000
H    -4.664000000     4.326000000    -0.983000000
O    -0.663000000     3.597000000    -6.466000000
H    -0.646000000     4.549000000    -6.556000000
H    -0.438000000     3.270000000    -7.337000000
O     3.045000000     0.526000000     3.699000000
H     2.761000000     1.229000000     4.284000000
H     3.505000000    -0.090000000     4.270000000
O    -7.044000000    -2.214000000     2.657000000
H    -7.749000000    -2.646000000     2.174000000
H    -7.379000000    -1.335000000     2.834000000
O     2.366000000     2.683000000     1.895000000
H     2.664000000     1.821000000     2.186000000
H     1.420000000     2.672000000     2.043000000
O    -3.795000000    -1.366000000    -4.001000000
H    -4.661000000    -0.992000000    -3.836000000
H    -3.887000000    -1.825000000    -4.836000000
O     1.177000000    -6.264000000     0.075000000
H     0.757000000    -5.746000000     0.761000000
H     0.609000000    -6.159000000    -0.688000000
O     5.288000000     2.880000000     1.030000000
H     4.633000000     2.331000000     1.459000000
H     5.123000000     2.762000000     0.094000000
O    -4.402000000     0.936000000    -2.065000000
H    -4.159000000     1.351000000    -1.238000000
H    -5.298000000     1.232000000    -2.227000000
O     3.602000000    -3.056000000     1.752000000
H     3.416000000    -2.559000000     0.956000000
H     4.524000000    -2.879000000     1.936000000
O     1.345000000    -4.687000000     5.425000000
H     2.138000000    -4.932000000     4.948000000
H     1.216000000    -3.762000000     5.216000000
O    -1.693000000    -3.190000000    -2.994000000
H    -2.558000000    -2.795000000    -2.884000000
H    -1.554000000    -3.691000000    -2.190000000
O    -4.744000000    -1.042000000     6.898000000
H    -4.513000000    -0.121000000     6.782000000
H    -4.527000000    -1.451000000     6.061000000
O     3.044000000     4.821000000    -0.892000000
H     3.799000000     4.831000000    -1.480000000
H     2.371000000     4.339000000    -1.373000000
O     1.167000000    -2.121000000     4.628000000
H     1.907000000    -1.791000000     4.117000000
H     0.439000000    -2.144000000     4.006000000
O    -1.035000000    -0.935000000     6.335000000
H    -1.240000000    -0.417000000     5.557000000
H    -0.096000000    -1.108000000     6.267000000
O    -1.291000000     4.209000000    -1.794000000
H    -0.479000000     3.761000000    -2.035000000
H    -1.925000000     3.924000000    -2.452000000
O     4.567000000     1.882000000    -3.709000000
H     4.256000000     2.787000000    -3.710000000
H     5.010000000     1.781000000    -2.867000000
O     6.643000000     1.725000000    -1.548000000
H     6.575000000     0.852000000    -1.160000000
H     7.181000000     2.220000000    -0.930000000
O    -4.766000000     2.095000000     4.066000000
H    -5.651000000     2.391000000     4.278000000
H    -4.886000000     1.473000000     3.349000000
O    -0.160000000    -4.609000000     1.683000000
H    -0.226000000    -5.202000000     2.431000000
H    -0.392000000    -3.750000000     2.038000000
O     3.732000000    -0.844000000    -4.496000000
H     2.913000000    -0.775000000    -4.006000000
H     4.268000000    -0.121000000    -4.169000000
O    -4.909000000    -0.112000000     2.528000000
H    -5.407000000    -0.859000000     2.860000000
H    -4.049000000    -0.474000000     2.314000000
O     4.951000000     4.862000000    -2.978000000
H     5.583000000     5.303000000    -2.410000000
H     5.459000000     4.606000000    -3.748000000
O     4.836000000    -3.333000000    -3.632000000
H     4.497000000    -2.438000000    -3.605000000
H     4.868000000    -3.604000000    -2.714000000
O    -4.146000000    -2.324000000     4.723000000
H    -3.797000000    -3.179000000     4.472000000
H    -3.682000000    -1.702000000     4.162000000
O    -2.039000000    -3.509000000     7.330000000
H    -2.933000000    -3.448000000     7.664000000
H    -1.839000000    -2.628000000     7.014000000
