161
-3055.00527
C     0.796000000     0.935000000    -0.854000000
H     1.249000000     1.634000000    -1.553000000
C    -0.170000000    -0.009000000    -1.300000000
H    -0.371000000    -0.086000000    -2.365000000
C    -0.851000000    -0.836000000    -0.405000000
C    -1.851000000    -1.860000000    -0.901000000
H    -1.297000000    -2.670000000    -1.380000000
H    -2.414000000    -2.371000000    -0.117000000
H    -2.577000000    -1.425000000    -1.591000000
C    -0.612000000    -0.643000000     0.944000000
H    -1.271000000    -1.187000000     1.616000000
C     0.389000000     0.254000000     1.446000000
H     0.459000000     0.574000000     2.483000000
C     1.159000000     0.935000000     0.518000000
C     2.150000000     2.018000000     1.033000000
O     2.848000000     1.705000000     1.989000000
O     2.360000000     3.035000000     0.430000000
O    -3.974000000    -3.170000000     2.493000000
H    -3.039000000    -3.299000000     2.654000000
H    -4.276000000    -4.009000000     2.148000000
O     0.593000000    -5.976000000    -4.100000000
H     0.384000000    -6.248000000    -4.993000000
H    -0.180000000    -6.218000000    -3.589000000
O     3.603000000     5.125000000    -3.064000000
H     4.517000000     5.396000000    -3.157000000
H     3.209000000     5.799000000    -2.511000000
O     7.376000000     3.927000000     0.708000000
H     7.591000000     4.234000000     1.589000000
H     6.508000000     3.533000000     0.798000000
O    -4.796000000    -3.763000000    -3.165000000
H    -4.040000000    -3.559000000    -3.717000000
H    -4.985000000    -4.683000000    -3.348000000
O     0.916000000     5.191000000     0.333000000
H     1.330000000     4.333000000     0.431000000
H     0.114000000     5.015000000    -0.158000000
O     0.669000000    -3.610000000     1.279000000
H     1.622000000    -3.544000000     1.338000000
H     0.390000000    -2.758000000     0.945000000
O     2.938000000     3.523000000     3.750000000
H     2.086000000     3.350000000     4.150000000
H     3.017000000     2.864000000     3.060000000
O     4.744000000     7.434000000    -0.043000000
H     4.250000000     8.231000000     0.150000000
H     4.462000000     6.810000000     0.625000000
O     0.948000000    -5.853000000    -0.361000000
H     0.087000000    -6.199000000    -0.597000000
H     0.761000000    -5.028000000     0.085000000
O     1.366000000    -3.980000000    -2.524000000
H     1.032000000    -4.588000000    -3.183000000
H     1.734000000    -4.543000000    -1.843000000
O    -6.166000000     0.264000000     2.411000000
H    -6.402000000    -0.594000000     2.058000000
H    -5.271000000     0.411000000     2.105000000
O    -5.222000000     0.620000000    -3.965000000
H    -5.228000000     1.302000000    -4.636000000
H    -4.428000000     0.116000000    -4.141000000
O     3.311000000    -2.766000000     1.966000000
H     3.887000000    -2.330000000     1.338000000
H     3.182000000    -2.120000000     2.660000000
O     1.586000000     6.189000000     2.899000000
H     1.798000000     5.474000000     3.500000000
H     1.516000000     5.769000000     2.042000000
O     2.528000000     1.008000000    -6.692000000
H     3.392000000     1.230000000    -7.038000000
H     2.697000000     0.715000000    -5.796000000
O     5.711000000     0.109000000     2.823000000
H     6.633000000     0.068000000     3.075000000
H     5.233000000    -0.033000000     3.639000000
O     3.336000000     2.639000000    -1.977000000
H     3.358000000     3.511000000    -2.372000000
H     3.264000000     2.804000000    -1.037000000
O    -5.472000000    -2.226000000    -0.888000000
H    -5.037000000    -2.708000000    -0.185000000
H    -5.081000000    -2.570000000    -1.691000000
O    -1.552000000     5.063000000     1.972000000
H    -1.941000000     4.503000000     1.300000000
H    -0.800000000     4.566000000     2.293000000
O    -0.750000000    -5.698000000     2.656000000
H    -0.409000000    -4.935000000     2.189000000
H    -1.047000000    -5.351000000     3.497000000
O    -6.841000000    -1.460000000    -4.296000000
H    -7.688000000    -1.237000000    -3.910000000
H    -6.283000000    -0.707000000    -4.101000000
O     0.750000000    -1.767000000     5.136000000
H     1.384000000    -1.566000000     4.448000000
H     0.951000000    -1.147000000     5.836000000
O     4.591000000    -1.026000000     0.169000000
H     4.418000000    -0.259000000     0.716000000
H     4.770000000    -0.665000000    -0.699000000
O     1.125000000     3.818000000    -6.285000000
H     2.017000000     4.142000000    -6.410000000
H     1.004000000     3.808000000    -5.336000000
O    -6.783000000     0.241000000    -1.751000000
H    -6.490000000    -0.633000000    -1.494000000
H    -6.270000000     0.446000000    -2.533000000
O     2.964000000     0.763000000    -4.035000000
H     2.985000000     1.191000000    -3.179000000
H     2.841000000    -0.165000000    -3.835000000
O     4.135000000     5.222000000     1.496000000
H     3.543000000     4.603000000     1.069000000
H     4.223000000     4.892000000     2.390000000
O    -3.526000000     0.652000000     1.457000000
H    -2.569000000     0.677000000     1.447000000
H    -3.789000000     1.278000000     0.783000000
O     5.860000000     5.597000000    -1.507000000
H     5.491000000     4.868000000    -1.007000000
H     5.648000000     6.374000000    -0.990000000
O     0.110000000     2.237000000    -3.997000000
H     0.507000000     1.509000000    -4.476000000
H     0.740000000     2.441000000    -3.306000000
O    -3.513000000    -5.154000000    -0.270000000
H    -4.368000000    -5.118000000    -0.700000000
H    -3.689000000    -5.559000000     0.580000000
O     2.669000000    -0.690000000     3.479000000
H     2.563000000     0.142000000     3.018000000
H     3.117000000    -0.458000000     4.293000000
O    -1.777000000    -5.780000000    -2.502000000
H    -1.936000000    -4.862000000    -2.282000000
H    -1.970000000    -6.256000000    -1.694000000
O    -2.519000000     3.396000000    -3.949000000
H    -2.887000000     3.372000000    -4.832000000
H    -1.615000000     3.101000000    -4.058000000
O    -1.472000000    -3.149000000     3.726000000
H    -1.999000000    -3.067000000     4.521000000
H    -0.644000000    -2.721000000     3.943000000
O    -4.446000000    -0.863000000     4.154000000
H    -4.134000000    -1.697000000     3.804000000
H    -5.225000000    -0.661000000     3.635000000
O     3.522000000    -2.110000000    -3.508000000
H     3.895000000    -2.634000000    -4.217000000
H     2.650000000    -2.481000000    -3.370000000
O     5.213000000     2.249000000     1.056000000
H     5.500000000     1.580000000     1.678000000
H     4.286000000     2.378000000     1.253000000
O     1.934000000     7.078000000    -1.611000000
H     1.606000000     7.957000000    -1.420000000
H     1.581000000     6.533000000    -0.909000000
O    -3.242000000    -0.790000000    -5.443000000
H    -3.059000000    -1.720000000    -5.312000000
H    -2.629000000    -0.519000000    -6.127000000
O    -1.386000000     3.443000000    -0.296000000
H    -0.866000000     2.678000000    -0.542000000
H    -2.278000000     3.223000000    -0.564000000
O    -4.065000000     2.442000000    -1.468000000
H    -4.943000000     2.084000000    -1.599000000
H    -3.871000000     2.906000000    -2.282000000
O     4.087000000     0.061000000     5.628000000
H     4.741000000    -0.467000000     6.085000000
H     4.049000000     0.878000000     6.125000000
O     1.056000000    -1.264000000    -5.883000000
H     0.550000000    -1.712000000    -6.561000000
H     1.279000000    -0.417000000    -6.270000000
O    -2.460000000    -3.274000000    -4.755000000
H    -1.938000000    -2.645000000    -4.258000000
H    -1.907000000    -3.508000000    -5.501000000
O    -1.837000000     0.755000000     4.280000000
H    -1.393000000    -0.090000000     4.362000000
H    -2.745000000     0.529000000     4.077000000
O    -0.076000000     3.245000000     3.467000000
H     0.041000000     3.539000000     4.371000000
H    -0.354000000     2.332000000     3.546000000
