161
-3050.31225
C     0.537000000     0.410000000    -1.364000000
H     0.715000000     0.444000000    -2.435000000
C    -0.488000000    -0.500000000    -1.086000000
H    -0.914000000    -1.107000000    -1.881000000
C    -0.947000000    -0.697000000     0.178000000
C    -1.953000000    -1.763000000     0.496000000
H    -2.794000000    -1.751000000    -0.202000000
H    -1.524000000    -2.743000000     0.279000000
H    -2.313000000    -1.855000000     1.523000000
C    -0.371000000    -0.031000000     1.236000000
H    -0.727000000    -0.258000000     2.237000000
C     0.631000000     0.888000000     0.984000000
H     1.077000000     1.270000000     1.898000000
C     1.150000000     1.121000000    -0.313000000
C     2.300000000     2.021000000    -0.467000000
O     2.746000000     2.606000000     0.444000000
O     2.867000000     1.945000000    -1.524000000
O    -7.144000000    -2.535000000    -3.091000000
H    -6.413000000    -2.126000000    -3.554000000
H    -6.730000000    -3.057000000    -2.404000000
O    -5.136000000    -1.329000000     1.855000000
H    -5.670000000    -0.622000000     1.493000000
H    -4.291000000    -1.240000000     1.414000000
O    -2.385000000    -4.494000000     4.333000000
H    -2.589000000    -3.561000000     4.273000000
H    -1.996000000    -4.599000000     5.201000000
O     1.313000000    -2.717000000    -5.032000000
H     1.613000000    -3.544000000    -4.655000000
H     1.872000000    -2.053000000    -4.627000000
O     2.100000000    -2.758000000    -0.375000000
H     1.563000000    -2.003000000    -0.615000000
H     1.697000000    -3.495000000    -0.833000000
O     1.493000000     5.244000000     1.099000000
H     1.990000000     4.443000000     0.930000000
H     0.833000000     5.266000000     0.406000000
O     1.426000000    -3.001000000     2.416000000
H     1.692000000    -2.272000000     1.856000000
H     1.119000000    -3.672000000     1.806000000
O     2.036000000     3.401000000     4.888000000
H     2.546000000     3.235000000     5.681000000
H     1.222000000     2.914000000     5.021000000
O    -5.316000000    -1.188000000    -5.268000000
H    -4.537000000    -1.037000000    -4.733000000
H    -5.251000000    -0.545000000    -5.974000000
O     3.864000000    -1.053000000     0.727000000
H     3.870000000    -1.064000000     1.684000000
H     3.313000000    -1.796000000     0.482000000
O    -3.660000000     0.816000000    -1.229000000
H    -3.466000000     0.362000000    -2.049000000
H    -4.482000000     1.277000000    -1.399000000
O     4.004000000    -0.542000000     3.387000000
H     4.878000000    -0.201000000     3.579000000
H     3.442000000     0.233000000     3.374000000
O     2.461000000     5.952000000     3.883000000
H     2.168000000     5.964000000     2.971000000
H     2.253000000     5.069000000     4.189000000
O     6.234000000     0.119000000    -4.177000000
H     6.497000000     0.594000000    -4.965000000
H     5.534000000     0.653000000    -3.799000000
O     6.286000000     3.299000000     3.426000000
H     5.919000000     2.859000000     2.659000000
H     6.258000000     4.229000000     3.204000000
O     2.921000000     4.679000000    -2.268000000
H     2.924000000     5.396000000    -1.635000000
H     2.919000000     3.886000000    -1.732000000
O    -1.658000000    -3.518000000    -2.616000000
H    -1.679000000    -3.385000000    -3.564000000
H    -2.570000000    -3.682000000    -2.376000000
O    -1.497000000    -2.938000000    -5.536000000
H    -0.541000000    -2.892000000    -5.529000000
H    -1.752000000    -2.507000000    -6.352000000
O    -7.486000000    -2.615000000     0.213000000
H    -6.824000000    -1.949000000     0.027000000
H    -8.213000000    -2.129000000     0.601000000
O    -5.048000000    -4.456000000    -4.070000000
H    -4.384000000    -5.113000000    -3.859000000
H    -5.063000000    -3.878000000    -3.308000000
O    -0.467000000     5.014000000    -0.851000000
H    -0.354000000     4.359000000    -1.540000000
H    -1.234000000     4.717000000    -0.362000000
O    -5.103000000    -3.507000000    -1.374000000
H    -5.712000000    -4.241000000    -1.453000000
H    -4.770000000    -3.566000000    -0.479000000
O     1.864000000    -2.285000000     5.092000000
H     2.062000000    -2.352000000     4.158000000
H     2.581000000    -2.750000000     5.523000000
O     2.974000000    -0.983000000    -3.663000000
H     2.761000000    -0.192000000    -4.157000000
H     3.587000000    -0.687000000    -2.989000000
O    -6.941000000     0.263000000     0.684000000
H    -6.898000000     1.047000000     1.231000000
H    -6.777000000     0.581000000    -0.204000000
O     4.490000000     4.532000000    -4.457000000
H     5.342000000     4.933000000    -4.287000000
H     3.972000000     4.731000000    -3.677000000
O     4.643000000     0.128000000    -1.555000000
H     4.111000000     0.924000000    -1.561000000
H     4.531000000    -0.227000000    -0.673000000
O    -3.153000000     1.587000000     5.146000000
H    -2.543000000     2.242000000     5.485000000
H    -2.938000000     0.788000000     5.627000000
O     5.128000000     5.608000000     2.592000000
H     4.219000000     5.682000000     2.882000000
H     5.393000000     6.508000000     2.403000000
O     0.448000000    -4.708000000    -1.256000000
H     0.351000000    -5.530000000    -1.737000000
H    -0.294000000    -4.175000000    -1.541000000
O    -3.944000000     2.430000000     2.588000000
H    -3.645000000     2.234000000     3.476000000
H    -3.176000000     2.280000000     2.038000000
O     5.123000000     4.893000000    -0.276000000
H     4.842000000     5.251000000     0.566000000
H     5.459000000     4.022000000    -0.066000000
O    -6.114000000    -2.857000000     3.831000000
H    -5.765000000    -2.268000000     3.161000000
H    -6.237000000    -3.690000000     3.376000000
O     1.388000000     3.564000000    -4.224000000
H     1.845000000     4.036000000    -3.528000000
H     2.027000000     2.923000000    -4.538000000
O    -2.135000000    -5.158000000     1.816000000
H    -3.009000000    -5.499000000     1.624000000
H    -2.215000000    -4.775000000     2.689000000
O     3.209000000     1.799000000     2.985000000
H     2.950000000     2.140000000     2.129000000
H     2.686000000     2.301000000     3.611000000
O     0.860000000    -5.602000000     1.487000000
H    -0.015000000    -5.547000000     1.872000000
H     0.775000000    -5.170000000     0.637000000
O    -2.597000000     2.233000000    -4.630000000
H    -2.187000000     2.490000000    -5.456000000
H    -3.046000000     3.023000000    -4.329000000
O    -2.273000000    -0.864000000     6.055000000
H    -2.980000000    -1.470000000     5.833000000
H    -1.491000000    -1.415000000     6.097000000
O    -4.856000000    -5.185000000     0.912000000
H    -5.281000000    -5.817000000     0.334000000
H    -5.391000000    -5.188000000     1.706000000
O     5.295000000     1.690000000     1.061000000
H     5.153000000     0.915000000     1.605000000
H     4.432000000     1.888000000     0.697000000
O    -2.725000000    -0.391000000    -4.061000000
H    -2.748000000     0.548000000    -4.244000000
H    -2.174000000    -0.756000000    -4.753000000
O    -2.207000000     2.397000000     0.375000000
H    -1.403000000     1.939000000     0.132000000
H    -2.895000000     1.952000000    -0.119000000
O    -0.818000000     2.989000000    -2.815000000
H    -1.416000000     2.362000000    -3.222000000
H    -0.025000000     2.946000000    -3.350000000
O     3.588000000     1.863000000    -4.036000000
H     3.891000000     2.761000000    -4.168000000
H     3.249000000     1.854000000    -3.141000000
O     7.563000000     0.989000000    -0.646000000
H     7.244000000     1.209000000     0.229000000
H     6.775000000     0.748000000    -1.134000000
O     0.808000000    -0.156000000     6.637000000
H     1.352000000    -0.539000000     5.949000000
H     0.533000000    -0.903000000     7.169000000
O    -0.367000000     1.821000000     5.144000000
H     0.119000000     1.312000000     5.793000000
H    -0.934000000     1.181000000     4.713000000
