161
-3019.97363
C     0.940000000     0.439000000    -1.019000000
H     1.448000000     0.808000000    -1.906000000
C    -0.105000000    -0.428000000    -1.270000000
H    -0.467000000    -0.671000000    -2.266000000
C    -0.880000000    -0.792000000    -0.148000000
C    -1.943000000    -1.841000000    -0.382000000
H    -2.680000000    -1.528000000    -1.124000000
H    -1.478000000    -2.797000000    -0.632000000
H    -2.570000000    -2.048000000     0.488000000
C    -0.705000000    -0.259000000     1.112000000
H    -1.204000000    -0.617000000     2.009000000
C     0.317000000     0.689000000     1.306000000
H     0.535000000     1.179000000     2.251000000
C     1.196000000     0.964000000     0.261000000
C     2.312000000     2.019000000     0.382000000
O     2.508000000     2.385000000     1.528000000
O     2.782000000     2.505000000    -0.582000000
O     4.661000000     5.032000000     5.043000000
H     4.270000000     4.183000000     5.246000000
H     5.303000000     4.843000000     4.358000000
O    -0.910000000    -6.671000000     2.501000000
H    -1.656000000    -6.087000000     2.637000000
H    -0.208000000    -6.288000000     3.028000000
O    -5.128000000    -2.886000000     3.492000000
H    -4.233000000    -3.115000000     3.745000000
H    -5.676000000    -3.531000000     3.940000000
O    -1.202000000     1.084000000    -7.088000000
H    -0.510000000     0.643000000    -6.595000000
H    -0.750000000     1.785000000    -7.558000000
O     1.423000000     6.883000000    -2.466000000
H     2.088000000     6.511000000    -1.885000000
H     0.682000000     6.281000000    -2.399000000
O     0.148000000    -3.528000000    -3.325000000
H     0.218000000    -3.413000000    -4.272000000
H     0.395000000    -4.441000000    -3.176000000
O     2.325000000     5.107000000    -0.481000000
H     2.623000000     4.198000000    -0.435000000
H     1.424000000     5.081000000    -0.160000000
O     0.492000000    -3.167000000     1.167000000
H     1.135000000    -3.014000000     1.858000000
H     0.316000000    -2.298000000     0.805000000
O     0.836000000     2.516000000     5.745000000
H     0.760000000     3.102000000     6.498000000
H     0.367000000     1.725000000     6.009000000
O     6.264000000     3.072000000     0.371000000
H     6.323000000     2.213000000    -0.049000000
H     5.932000000     2.887000000     1.249000000
O     2.527000000    -5.725000000     0.086000000
H     1.661000000    -5.434000000     0.373000000
H     2.720000000    -6.483000000     0.638000000
O    -3.885000000     3.327000000     1.292000000
H    -3.132000000     3.455000000     0.716000000
H    -3.741000000     3.939000000     2.014000000
O     2.314000000    -1.789000000    -2.539000000
H     1.845000000    -1.621000000    -1.721000000
H     1.789000000    -2.453000000    -2.984000000
O    -4.503000000     0.733000000    -1.355000000
H    -4.812000000     1.606000000    -1.597000000
H    -3.839000000     0.523000000    -2.011000000
O     1.897000000    -1.122000000     3.035000000
H     2.198000000    -1.459000000     3.878000000
H     2.244000000    -0.230000000     2.995000000
O     1.744000000     6.704000000     2.309000000
H     0.852000000     6.457000000     2.065000000
H     2.256000000     5.903000000     2.193000000
O     5.673000000    -0.123000000    -5.378000000
H     5.435000000     0.305000000    -6.200000000
H     4.846000000    -0.200000000    -4.901000000
O     5.518000000     1.947000000     3.359000000
H     5.743000000     1.038000000     3.158000000
H     4.639000000     1.900000000     3.734000000
O     3.404000000     2.954000000    -3.552000000
H     3.252000000     3.875000000    -3.760000000
H     3.299000000     2.902000000    -2.602000000
O    -2.814000000    -3.324000000    -3.165000000
H    -2.116000000    -3.003000000    -2.593000000
H    -2.436000000    -4.090000000    -3.597000000
O    -5.381000000    -3.586000000    -3.609000000
H    -4.425000000    -3.544000000    -3.627000000
H    -5.623000000    -3.178000000    -2.777000000
O    -0.362000000     5.292000000     1.098000000
H    -0.680000000     4.461000000     0.743000000
H    -1.122000000     5.671000000     1.539000000
O    -2.073000000    -4.022000000     2.024000000
H    -1.175000000    -3.842000000     1.744000000
H    -2.180000000    -3.513000000     2.827000000
O    -6.618000000    -2.619000000    -1.543000000
H    -7.339000000    -2.077000000    -1.864000000
H    -6.326000000    -2.181000000    -0.744000000
O    -0.109000000    -1.291000000     5.015000000
H     0.444000000    -0.894000000     4.342000000
H     0.509000000    -1.682000000     5.633000000
O    -5.307000000    -1.145000000     0.388000000
H    -4.753000000    -1.908000000     0.222000000
H    -5.017000000    -0.495000000    -0.252000000
O     3.425000000     0.054000000    -4.297000000
H     3.384000000     0.905000000    -3.861000000
H     2.948000000    -0.537000000    -3.714000000
O     3.665000000     4.944000000     2.002000000
H     3.219000000     4.101000000     1.914000000
H     3.883000000     5.195000000     1.105000000
O    -1.246000000    -6.057000000    -4.003000000
H    -1.115000000    -7.004000000    -3.965000000
H    -1.634000000    -5.903000000    -4.865000000
O    -5.763000000     1.268000000     1.975000000
H    -5.565000000     0.503000000     1.434000000
H    -5.107000000     1.917000000     1.721000000
O     4.663000000     4.692000000    -1.830000000
H     4.809000000     3.921000000    -1.281000000
H     4.422000000     5.383000000    -1.213000000
O    -0.301000000     2.719000000    -2.841000000
H    -0.423000000     3.659000000    -2.709000000
H     0.521000000     2.650000000    -3.325000000
O    -2.704000000    -5.774000000     0.013000000
H    -3.641000000    -5.735000000    -0.177000000
H    -2.604000000    -5.283000000     0.829000000
O     2.764000000     1.591000000     3.942000000
H     2.626000000     1.817000000     3.022000000
H     2.032000000     2.002000000     4.402000000
O    -0.382000000    -5.873000000    -1.219000000
H    -0.709000000    -5.991000000    -2.111000000
H    -1.168000000    -5.716000000    -0.695000000
O    -2.463000000    -2.587000000     4.381000000
H    -2.981000000    -2.100000000     5.023000000
H    -1.564000000    -2.292000000     4.524000000
O    -4.398000000     1.455000000     5.243000000
H    -4.575000000     1.306000000     4.315000000
H    -4.118000000     0.601000000     5.574000000
O     5.138000000    -1.726000000    -1.590000000
H     5.998000000    -2.001000000    -1.908000000
H     4.518000000    -2.270000000    -2.077000000
O    -5.720000000    -4.763000000     0.452000000
H    -6.286000000    -4.035000000     0.196000000
H    -5.814000000    -4.818000000     1.403000000
O     5.185000000     1.145000000    -1.405000000
H     5.038000000     0.223000000    -1.194000000
H     4.364000000     1.578000000    -1.169000000
O     2.061000000    -6.283000000    -2.383000000
H     2.450000000    -6.134000000    -1.521000000
H     1.118000000    -6.219000000    -2.234000000
O    -3.803000000     0.077000000    -5.401000000
H    -3.622000000     0.539000000    -4.582000000
H    -3.093000000     0.342000000    -5.986000000
O    -1.277000000     2.772000000    -0.038000000
H    -0.676000000     2.136000000     0.351000000
H    -1.351000000     2.503000000    -0.953000000
O    -2.607000000     1.570000000    -3.355000000
H    -2.964000000     2.386000000    -3.706000000
H    -1.716000000     1.794000000    -3.087000000
O     0.603000000    -0.599000000    -5.901000000
H     0.456000000    -1.532000000    -6.062000000
H     1.519000000    -0.457000000    -6.141000000
O     6.413000000     2.739000000    -3.471000000
H     6.534000000     2.181000000    -2.703000000
H     5.488000000     2.984000000    -3.445000000
O    -0.606000000     0.706000000     7.068000000
H    -0.608000000    -0.126000000     6.595000000
H    -1.457000000     0.735000000     7.504000000
O    -2.230000000     3.498000000     5.394000000
H    -1.398000000     3.024000000     5.402000000
H    -2.869000000     2.865000000     5.721000000
