161
-3044.73958
C     0.928000000    -0.455000000    -1.106000000
H     1.518000000    -0.758000000    -1.967000000
C    -0.255000000    -1.092000000    -0.745000000
H    -0.616000000    -2.011000000    -1.199000000
C    -0.980000000    -0.567000000     0.346000000
C    -2.293000000    -1.314000000     0.809000000
H    -2.527000000    -2.184000000     0.193000000
H    -2.086000000    -1.623000000     1.836000000
H    -3.179000000    -0.675000000     0.777000000
C    -0.647000000     0.581000000     0.957000000
H    -1.303000000     0.905000000     1.761000000
C     0.550000000     1.250000000     0.612000000
H     0.982000000     2.056000000     1.200000000
C     1.317000000     0.756000000    -0.449000000
C     2.558000000     1.485000000    -0.849000000
O     2.757000000     2.590000000    -0.469000000
O     3.279000000     1.063000000    -1.711000000
O    -4.927000000    -4.148000000    -3.629000000
H    -4.117000000    -4.484000000    -3.244000000
H    -5.604000000    -4.755000000    -3.330000000
O     2.150000000     6.602000000     1.428000000
H     1.222000000     6.639000000     1.660000000
H     2.177000000     6.863000000     0.507000000
O    -1.870000000    -4.554000000     4.108000000
H    -2.342000000    -5.327000000     4.418000000
H    -2.020000000    -3.894000000     4.785000000
O     3.419000000    -0.406000000    -6.523000000
H     3.741000000    -0.521000000    -5.629000000
H     2.792000000     0.315000000    -6.461000000
O    -5.919000000     1.509000000    -2.104000000
H    -5.529000000     0.637000000    -2.172000000
H    -6.863000000     1.353000000    -2.148000000
O     3.253000000    -2.660000000    -3.172000000
H     3.649000000    -2.959000000    -2.354000000
H     3.936000000    -2.136000000    -3.591000000
O     6.085000000     4.963000000     1.988000000
H     5.692000000     4.126000000     2.236000000
H     5.338000000     5.542000000     1.834000000
O     4.511000000    -3.850000000    -0.838000000
H     5.400000000    -4.099000000    -0.585000000
H     3.964000000    -4.141000000    -0.108000000
O    -4.762000000    -1.390000000    -4.063000000
H    -3.991000000    -1.168000000    -3.540000000
H    -4.871000000    -2.333000000    -3.939000000
O    -0.978000000     5.182000000     0.039000000
H    -0.481000000     4.666000000    -0.596000000
H    -1.875000000     4.858000000    -0.039000000
O     2.343000000    -1.378000000     1.357000000
H     1.805000000    -1.307000000     0.569000000
H     2.067000000    -2.200000000     1.762000000
O     2.046000000     3.199000000     3.758000000
H     2.314000000     2.281000000     3.715000000
H     1.254000000     3.192000000     4.296000000
O    -0.566000000    -0.873000000    -4.707000000
H    -0.198000000    -1.753000000    -4.791000000
H    -1.429000000    -0.934000000    -5.116000000
O    -0.715000000    -6.420000000     2.483000000
H    -0.526000000    -6.122000000     1.593000000
H    -1.119000000    -5.664000000     2.908000000
O    -0.684000000     4.931000000     2.864000000
H    -0.640000000     5.838000000     3.167000000
H    -0.574000000     4.990000000     1.915000000
O     1.733000000     3.664000000    -4.296000000
H     1.185000000     2.934000000    -4.585000000
H     2.629000000     3.340000000    -4.382000000
O     0.115000000    -5.107000000    -2.564000000
H     0.596000000    -4.573000000    -3.196000000
H    -0.721000000    -5.291000000    -2.993000000
O     0.712000000    -3.271000000    -4.377000000
H     1.537000000    -2.893000000    -4.071000000
H     0.961000000    -3.814000000    -5.125000000
O    -2.561000000     1.566000000    -1.072000000
H    -3.141000000     2.261000000    -0.762000000
H    -1.715000000     1.763000000    -0.670000000
O    -0.970000000     5.691000000    -3.107000000
H    -0.315000000     5.389000000    -2.478000000
H    -1.207000000     4.907000000    -3.602000000
O    -2.678000000    -5.653000000    -2.748000000
H    -2.902000000    -6.570000000    -2.906000000
H    -2.952000000    -5.491000000    -1.845000000
O    -4.409000000     4.285000000     2.371000000
H    -3.683000000     3.973000000     2.911000000
H    -4.770000000     3.493000000     1.973000000
O     1.878000000     0.510000000     3.602000000
H     1.697000000    -0.046000000     2.844000000
H     2.465000000    -0.013000000     4.148000000
O     6.935000000     0.644000000    -3.446000000
H     7.248000000     1.547000000    -3.387000000
H     6.598000000     0.450000000    -2.571000000
O    -5.550000000    -1.941000000     0.887000000
H    -4.656000000    -1.959000000     0.546000000
H    -5.783000000    -2.863000000     0.997000000
O     4.017000000     5.708000000    -3.571000000
H     4.165000000     4.820000000    -3.248000000
H     4.807000000     5.917000000    -4.069000000
O     5.651000000     0.035000000    -1.115000000
H     4.728000000     0.215000000    -1.296000000
H     5.716000000     0.057000000    -0.160000000
O    -4.352000000     1.723000000     4.752000000
H    -3.514000000     1.941000000     4.343000000
H    -4.852000000     1.294000000     4.058000000
O     3.913000000     6.079000000     3.484000000
H     3.444000000     6.013000000     2.652000000
H     3.815000000     6.995000000     3.743000000
O     0.384000000    -4.886000000     0.472000000
H     1.294000000    -5.170000000     0.386000000
H     0.153000000    -4.556000000    -0.397000000
O    -5.696000000     0.513000000     2.420000000
H    -5.839000000     1.130000000     1.702000000
H    -5.541000000    -0.327000000     1.988000000
O     4.369000000     5.615000000    -0.392000000
H     5.232000000     5.622000000    -0.806000000
H     3.905000000     4.894000000    -0.817000000
O    -3.300000000     4.031000000    -0.186000000
H    -3.926000000     4.425000000    -0.794000000
H    -3.684000000     4.175000000     0.679000000
O     4.045000000    -0.023000000    -4.036000000
H     3.407000000     0.167000000    -3.348000000
H     4.858000000     0.375000000    -3.726000000
O    -2.563000000    -5.190000000     0.163000000
H    -2.407000000    -4.529000000     0.838000000
H    -1.690000000    -5.503000000    -0.071000000
O     3.830000000     3.043000000     1.796000000
H     3.391000000     2.795000000     0.983000000
H     3.119000000     3.153000000     2.428000000
O     1.008000000    -3.121000000     2.861000000
H     0.527000000    -3.386000000     3.645000000
H     0.687000000    -3.705000000     2.174000000
O     0.771000000     3.807000000    -1.923000000
H     1.097000000     3.875000000    -2.820000000
H     1.509000000     3.456000000    -1.426000000
O     0.934000000     1.291000000    -5.959000000
H     0.423000000     0.566000000    -5.600000000
H     0.459000000     1.551000000    -6.749000000
O    -0.620000000    -0.711000000     4.944000000
H    -0.263000000    -0.066000000     4.333000000
H     0.151000000    -1.106000000     5.352000000
O    -2.729000000    -2.011000000     5.833000000
H    -2.124000000    -1.427000000     5.376000000
H    -2.710000000    -1.712000000     6.742000000
O    -4.590000000    -6.723000000     1.414000000
H    -4.120000000    -7.099000000     2.158000000
H    -3.901000000    -6.461000000     0.803000000
O     5.325000000     0.607000000     1.661000000
H     5.538000000     0.475000000     2.585000000
H     4.801000000     1.408000000     1.648000000
O    -2.617000000    -0.721000000    -2.798000000
H    -2.572000000     0.050000000    -2.233000000
H    -1.756000000    -0.763000000    -3.214000000
O    -5.802000000     2.660000000     0.655000000
H    -5.852000000     2.452000000    -0.278000000
H    -6.556000000     3.229000000     0.814000000
O     4.984000000     3.315000000    -1.996000000
H     5.753000000     2.753000000    -1.907000000
H     4.279000000     2.826000000    -1.571000000
O    -0.848000000     2.113000000     5.910000000
H    -1.245000000     2.212000000     6.775000000
H    -0.146000000     1.476000000     6.040000000
O    -2.264000000     2.806000000     3.554000000
H    -1.870000000     2.615000000     4.405000000
H    -1.659000000     3.422000000     3.142000000
