161
-3039.16232
C     1.268000000     0.501000000    -0.510000000
H     2.186000000     0.769000000    -1.026000000
C     0.771000000    -0.801000000    -0.690000000
H     1.279000000    -1.510000000    -1.340000000
C    -0.406000000    -1.165000000    -0.096000000
C    -1.017000000    -2.484000000    -0.244000000
H    -0.226000000    -2.997000000    -0.793000000
H    -1.245000000    -2.934000000     0.725000000
H    -1.951000000    -2.429000000    -0.808000000
C    -1.034000000    -0.301000000     0.783000000
H    -1.959000000    -0.561000000     1.292000000
C    -0.566000000     0.989000000     0.986000000
H    -1.078000000     1.743000000     1.578000000
C     0.514000000     1.420000000     0.206000000
C     0.999000000     2.905000000     0.138000000
O     0.242000000     3.769000000    -0.215000000
O     2.215000000     3.086000000     0.018000000
O    -1.897000000     3.550000000     4.470000000
H    -1.737000000     2.787000000     5.025000000
H    -2.364000000     3.200000000     3.711000000
O     4.298000000     5.514000000    -3.031000000
H     3.848000000     6.104000000    -3.636000000
H     4.436000000     6.038000000    -2.242000000
O    -4.406000000    -0.753000000     1.941000000
H    -4.677000000    -0.979000000     1.051000000
H    -4.890000000    -1.361000000     2.500000000
O     1.606000000     5.627000000     1.480000000
H     1.404000000     4.920000000     0.867000000
H     1.284000000     6.418000000     1.048000000
O    -4.165000000    -3.041000000    -1.930000000
H    -4.502000000    -3.714000000    -2.521000000
H    -3.846000000    -3.527000000    -1.170000000
O    -1.202000000     6.304000000     2.432000000
H    -1.451000000     5.480000000     2.013000000
H    -2.033000000     6.748000000     2.601000000
O     2.115000000    -5.033000000    -2.157000000
H     2.661000000    -5.816000000    -2.224000000
H     1.267000000    -5.358000000    -1.855000000
O     1.761000000    -7.012000000     1.895000000
H     0.862000000    -7.179000000     1.610000000
H     1.954000000    -6.131000000     1.575000000
O     4.420000000     5.836000000     0.744000000
H     4.533000000     6.735000000     1.054000000
H     3.473000000     5.735000000     0.643000000
O    -0.153000000     6.023000000    -1.241000000
H    -1.092000000     5.980000000    -1.419000000
H     0.044000000     5.199000000    -0.794000000
O    -2.313000000     3.818000000     0.442000000
H    -2.528000000     4.613000000    -0.046000000
H    -1.476000000     3.532000000     0.076000000
O     5.884000000    -0.932000000    -3.191000000
H     6.641000000    -0.466000000    -3.547000000
H     5.170000000    -0.296000000    -3.232000000
O     4.099000000    -2.710000000    -1.578000000
H     3.719000000    -3.585000000    -1.658000000
H     4.534000000    -2.560000000    -2.418000000
O     1.821000000    -4.476000000     0.585000000
H     2.277000000    -4.500000000    -0.256000000
H     2.299000000    -3.825000000     1.099000000
O     3.473000000    -0.951000000    -5.029000000
H     2.948000000    -0.445000000    -5.649000000
H     2.857000000    -1.579000000    -4.651000000
O    -1.473000000    -5.650000000    -4.495000000
H    -1.758000000    -5.810000000    -5.395000000
H    -1.252000000    -4.719000000    -4.475000000
O    -1.749000000     0.786000000     5.485000000
H    -2.442000000     0.707000000     4.829000000
H    -1.034000000     0.249000000     5.144000000
O    -0.778000000    -7.670000000     1.210000000
H    -1.251000000    -8.472000000     0.986000000
H    -0.707000000    -7.195000000     0.383000000
O    -3.018000000     6.139000000    -0.801000000
H    -2.736000000     7.010000000    -0.521000000
H    -3.048000000     6.192000000    -1.756000000
O    -0.463000000    -6.048000000    -0.837000000
H    -0.415000000    -5.158000000    -0.490000000
H    -1.259000000    -6.054000000    -1.370000000
O    -0.174000000    -1.408000000     4.100000000
H     0.308000000    -0.724000000     3.637000000
H    -0.296000000    -2.098000000     3.448000000
O    -3.437000000     1.350000000     3.195000000
H    -3.536000000     0.598000000     2.612000000
H    -4.259000000     1.832000000     3.105000000
O     1.438000000     5.423000000     4.303000000
H     1.127000000     5.739000000     3.454000000
H     0.730000000     5.636000000     4.911000000
O     5.086000000     2.129000000    -3.637000000
H     4.256000000     2.434000000    -3.271000000
H     5.753000000     2.640000000    -3.178000000
O     1.333000000    -2.807000000    -3.941000000
H     1.850000000    -3.112000000    -3.195000000
H     0.601000000    -3.422000000    -3.992000000
O     5.411000000     1.541000000     3.286000000
H     4.670000000     2.105000000     3.063000000
H     5.981000000     1.578000000     2.518000000
O    -4.558000000    -4.505000000     0.929000000
H    -5.030000000    -5.335000000     0.989000000
H    -4.126000000    -4.413000000     1.778000000
O     0.069000000     3.041000000    -3.698000000
H     0.107000000     2.096000000    -3.849000000
H     0.705000000     3.197000000    -3.000000000
O    -0.011000000     0.196000000    -3.838000000
H     0.773000000     0.092000000    -3.299000000
H    -0.051000000    -0.606000000    -4.359000000
O    -2.783000000    -5.889000000    -2.093000000
H    -2.260000000    -5.555000000    -2.821000000
H    -3.685000000    -5.665000000    -2.323000000
O     1.745000000    -0.478000000     2.410000000
H     1.741000000     0.447000000     2.656000000
H     1.271000000    -0.507000000     1.579000000
O     2.388000000     3.771000000    -5.437000000
H     2.216000000     3.636000000    -4.505000000
H     2.893000000     4.583000000    -5.471000000
O     3.301000000    -2.704000000     2.180000000
H     2.735000000    -1.953000000     2.355000000
H     3.479000000    -3.077000000     3.043000000
O     6.814000000     3.523000000    -2.040000000
H     6.428000000     4.091000000    -1.373000000
H     7.734000000     3.445000000    -1.785000000
O     3.413000000     3.170000000     2.560000000
H     3.078000000     4.039000000     2.780000000
H     3.716000000     3.251000000     1.656000000
O     4.949000000     2.494000000     0.282000000
H     4.770000000     1.555000000     0.230000000
H     4.150000000     2.909000000    -0.042000000
O     2.054000000     7.370000000    -2.346000000
H     2.336000000     7.617000000    -1.466000000
H     1.195000000     6.968000000    -2.219000000
O    -1.507000000    -6.076000000     3.215000000
H    -1.282000000    -6.508000000     2.391000000
H    -0.900000000    -6.449000000     3.855000000
O     6.859000000     5.469000000    -0.008000000
H     5.937000000     5.672000000     0.149000000
H     7.297000000     5.700000000     0.811000000
O    -3.744000000    -0.468000000    -2.980000000
H    -4.232000000    -1.154000000    -2.523000000
H    -2.955000000    -0.344000000    -2.453000000
O     4.518000000    -0.433000000     0.172000000
H     4.544000000    -1.037000000    -0.571000000
H     4.040000000    -0.910000000     0.851000000
O     2.775000000     3.379000000    -2.621000000
H     3.329000000     4.156000000    -2.702000000
H     2.623000000     3.290000000    -1.680000000
O    -6.143000000    -1.705000000     0.031000000
H    -5.595000000    -2.399000000    -0.335000000
H    -6.778000000    -2.165000000     0.579000000
O    -1.610000000    -2.866000000    -4.268000000
H    -1.437000000    -2.450000000    -5.112000000
H    -2.433000000    -2.477000000    -3.973000000
O    -2.426000000    -3.673000000     4.156000000
H    -2.054000000    -4.446000000     3.732000000
H    -3.261000000    -3.534000000     3.709000000
O     1.418000000     1.780000000     4.032000000
H     1.978000000     2.168000000     3.360000000
H     1.354000000     2.454000000     4.709000000
O    -2.746000000     3.234000000    -4.017000000
H    -1.807000000     3.153000000    -3.846000000
H    -2.878000000     2.777000000    -4.848000000
O    -4.947000000     3.028000000     0.758000000
H    -5.111000000     3.968000000     0.838000000
H    -3.998000000     2.942000000     0.847000000
