161
-3020.25317
C     1.361000000     0.280000000    -0.478000000
H     2.422000000     0.301000000    -0.714000000
C     0.691000000    -0.924000000    -0.552000000
H     1.115000000    -1.835000000    -0.966000000
C    -0.652000000    -1.007000000    -0.210000000
C    -1.438000000    -2.216000000    -0.522000000
H    -2.512000000    -2.185000000    -0.327000000
H    -1.241000000    -2.574000000    -1.534000000
H    -1.054000000    -3.082000000     0.021000000
C    -1.207000000     0.075000000     0.498000000
H    -2.229000000    -0.006000000     0.860000000
C    -0.502000000     1.247000000     0.632000000
H    -0.924000000     2.104000000     1.150000000
C     0.782000000     1.340000000     0.143000000
C     1.596000000     2.490000000     0.573000000
O     1.019000000     3.415000000     1.146000000
O     2.773000000     2.580000000     0.281000000
O     5.449000000    -0.031000000     3.361000000
H     6.019000000     0.616000000     3.778000000
H     5.091000000     0.423000000     2.598000000
O    -5.985000000    -4.696000000    -0.140000000
H    -5.294000000    -5.281000000    -0.450000000
H    -5.972000000    -4.793000000     0.812000000
O    -0.301000000    -0.824000000    -3.586000000
H    -0.363000000    -0.884000000    -2.633000000
H    -0.861000000    -1.530000000    -3.908000000
O     6.045000000     6.499000000     0.904000000
H     5.906000000     7.405000000     1.179000000
H     5.164000000     6.134000000     0.826000000
O     4.816000000    -1.744000000    -1.420000000
H     5.297000000    -1.954000000    -2.220000000
H     4.087000000    -2.364000000    -1.409000000
O    -4.136000000     3.498000000     3.049000000
H    -4.977000000     3.061000000     2.912000000
H    -3.752000000     3.556000000     2.174000000
O    -3.385000000     3.480000000     0.346000000
H    -3.491000000     2.687000000    -0.180000000
H    -3.497000000     4.198000000    -0.278000000
O     0.108000000    -3.077000000     2.827000000
H     1.016000000    -2.775000000     2.826000000
H    -0.411000000    -2.277000000     2.916000000
O     3.039000000    -3.770000000    -2.292000000
H     2.183000000    -4.151000000    -2.485000000
H     3.551000000    -3.915000000    -3.088000000
O     1.024000000    -0.504000000     4.020000000
H     1.222000000     0.260000000     4.560000000
H     1.875000000    -0.911000000     3.859000000
O     1.744000000    -5.369000000     0.062000000
H     1.972000000    -6.209000000    -0.336000000
H     1.291000000    -4.891000000    -0.633000000
O    -4.105000000     1.532000000    -1.541000000
H    -4.101000000     0.945000000    -2.296000000
H    -5.020000000     1.797000000    -1.448000000
O     1.685000000     2.046000000     5.249000000
H     2.607000000     2.116000000     5.493000000
H     1.651000000     2.358000000     4.345000000
O     4.896000000     4.982000000     3.100000000
H     5.179000000     5.523000000     3.837000000
H     3.942000000     5.055000000     3.101000000
O    -0.152000000     6.620000000    -2.211000000
H    -0.975000000     6.134000000    -2.263000000
H    -0.269000000     7.355000000    -2.812000000
O     0.615000000    -5.002000000    -3.243000000
H     0.587000000    -4.867000000    -4.190000000
H    -0.027000000    -5.692000000    -3.079000000
O    -6.749000000    -0.842000000    -3.384000000
H    -6.105000000    -1.128000000    -2.736000000
H    -7.508000000    -1.405000000    -3.231000000
O     3.396000000    -2.360000000     3.094000000
H     3.740000000    -3.106000000     3.585000000
H     3.846000000    -2.401000000     2.250000000
O     2.462000000    -1.568000000    -6.014000000
H     2.173000000    -0.799000000    -6.504000000
H     2.442000000    -1.290000000    -5.098000000
O    -4.838000000    -3.637000000    -3.963000000
H    -5.244000000    -2.821000000    -3.670000000
H    -5.552000000    -4.275000000    -3.954000000
O    -3.569000000    -5.338000000    -2.332000000
H    -3.289000000    -5.998000000    -2.966000000
H    -4.129000000    -4.745000000    -2.834000000
O    -3.710000000    -2.729000000     3.812000000
H    -3.128000000    -1.986000000     3.968000000
H    -3.133000000    -3.493000000     3.826000000
O     2.067000000     3.910000000     3.363000000
H     1.359000000     4.354000000     3.829000000
H     1.667000000     3.616000000     2.544000000
O     5.708000000     3.799000000    -1.322000000
H     5.829000000     4.522000000    -0.707000000
H     4.925000000     3.347000000    -1.009000000
O    -0.826000000    -7.238000000    -2.452000000
H    -1.433000000    -7.101000000    -3.179000000
H    -1.286000000    -7.839000000    -1.866000000
O     2.696000000     2.741000000    -2.493000000
H     2.787000000     2.736000000    -1.540000000
H     3.153000000     3.533000000    -2.774000000
O     2.270000000     0.168000000    -3.812000000
H     2.186000000     0.827000000    -3.124000000
H     1.443000000    -0.313000000    -3.786000000
O    -3.163000000     6.538000000     1.000000000
H    -2.625000000     7.158000000     1.493000000
H    -2.566000000     5.822000000     0.784000000
O     1.771000000    -5.715000000     2.773000000
H     1.811000000    -5.321000000     1.902000000
H     0.984000000    -5.340000000     3.169000000
O     6.431000000     0.264000000    -0.172000000
H     6.065000000     1.112000000     0.079000000
H     5.672000000    -0.315000000    -0.235000000
O     1.808000000     2.702000000    -5.492000000
H     1.442000000     3.311000000    -4.851000000
H     2.031000000     1.923000000    -4.981000000
O    -1.718000000    -0.594000000     4.392000000
H    -2.283000000     0.175000000     4.468000000
H    -0.921000000    -0.266000000     3.975000000
O    -4.869000000    -1.275000000     1.636000000
H    -4.826000000    -1.912000000     2.349000000
H    -4.951000000    -0.428000000     2.075000000
O     3.342000000     5.100000000     0.306000000
H     2.615000000     5.721000000     0.346000000
H     2.986000000     4.292000000     0.677000000
O    -5.022000000    -2.058000000    -1.506000000
H    -4.559000000    -1.351000000    -1.055000000
H    -5.335000000    -2.626000000    -0.802000000
O     4.776000000     0.787000000    -4.805000000
H     5.600000000     0.463000000    -4.442000000
H     4.191000000     0.854000000    -4.050000000
O    -1.834000000    -4.627000000     3.712000000
H    -1.116000000    -4.081000000     3.391000000
H    -1.458000000    -5.109000000     4.448000000
O     1.199000000     6.859000000     0.638000000
H     0.446000000     6.447000000     1.060000000
H     1.084000000     6.672000000    -0.294000000
O    -1.800000000     3.419000000    -3.083000000
H    -2.465000000     3.983000000    -2.688000000
H    -2.073000000     2.530000000    -2.854000000
O    -1.848000000    -3.044000000    -4.687000000
H    -2.586000000    -3.373000000    -4.174000000
H    -1.463000000    -3.826000000    -5.082000000
O    -7.400000000    -0.407000000     0.255000000
H    -6.533000000    -0.695000000     0.541000000
H    -8.009000000    -0.980000000     0.721000000
O    -2.609000000    -5.690000000     0.851000000
H    -2.345000000    -5.660000000     1.771000000
H    -2.498000000    -4.791000000     0.541000000
O     4.808000000     2.402000000     2.019000000
H     4.024000000     2.513000000     1.481000000
H     5.011000000     3.284000000     2.331000000
O     4.533000000    -4.000000000     0.317000000
H     3.703000000    -4.430000000     0.108000000
H     4.407000000    -3.092000000     0.043000000
O    -1.093000000     4.913000000     0.524000000
H    -1.677000000     4.175000000     0.346000000
H    -0.281000000     4.508000000     0.827000000
O     0.390000000     5.944000000     4.304000000
H    -0.349000000     6.519000000     4.501000000
H     0.957000000     6.467000000     3.737000000
O    -3.123000000     1.719000000     5.105000000
H    -2.953000000     2.381000000     5.774000000
H    -3.549000000     2.199000000     4.395000000
O    -3.923000000    -0.900000000    -5.338000000
H    -3.573000000    -1.787000000    -5.255000000
H    -3.574000000    -0.581000000    -6.170000000
