161
-3011.14299
C    -0.186000000     1.332000000     0.609000000
H    -0.217000000     2.204000000     1.257000000
C     0.335000000     0.211000000     1.223000000
H     0.719000000     0.299000000     2.236000000
C     0.390000000    -1.007000000     0.592000000
C     1.048000000    -2.237000000     1.248000000
H     0.298000000    -2.838000000     1.767000000
H     1.631000000    -2.865000000     0.570000000
H     1.807000000    -1.888000000     1.952000000
C    -0.145000000    -1.068000000    -0.683000000
H    -0.064000000    -1.970000000    -1.283000000
C    -0.592000000     0.039000000    -1.370000000
H    -0.855000000    -0.098000000    -2.416000000
C    -0.645000000     1.315000000    -0.683000000
C    -1.044000000     2.536000000    -1.456000000
O    -1.249000000     2.443000000    -2.655000000
O    -1.229000000     3.590000000    -0.903000000
O    -0.145000000    -5.609000000     3.223000000
H     0.257000000    -5.999000000     2.447000000
H    -1.073000000    -5.832000000     3.150000000
O     2.139000000     2.973000000    -6.087000000
H     2.277000000     3.035000000    -7.032000000
H     1.597000000     3.732000000    -5.874000000
O    -4.932000000     4.005000000    -4.876000000
H    -4.314000000     3.636000000    -4.245000000
H    -4.890000000     3.413000000    -5.626000000
O    -0.906000000     3.941000000    -5.047000000
H    -0.976000000     4.757000000    -4.552000000
H    -1.009000000     3.253000000    -4.389000000
O    -2.855000000     1.952000000     3.554000000
H    -2.538000000     2.799000000     3.239000000
H    -3.484000000     1.670000000     2.890000000
O     3.990000000     3.496000000    -0.999000000
H     4.336000000     3.320000000    -1.875000000
H     3.534000000     2.691000000    -0.756000000
O     4.039000000    -0.913000000     3.578000000
H     4.912000000    -1.290000000     3.687000000
H     3.443000000    -1.656000000     3.679000000
O    -5.158000000     3.523000000    -1.056000000
H    -5.037000000     4.278000000    -0.481000000
H    -4.390000000     3.531000000    -1.628000000
O     2.616000000     0.077000000    -3.181000000
H     1.865000000     0.468000000    -3.627000000
H     3.354000000     0.235000000    -3.771000000
O    -5.020000000    -1.013000000    -2.526000000
H    -5.443000000    -0.387000000    -1.939000000
H    -5.485000000    -0.912000000    -3.357000000
O     0.626000000     2.018000000     5.201000000
H     0.819000000     1.915000000     4.269000000
H     0.795000000     2.943000000     5.380000000
O    -3.503000000     5.869000000     3.506000000
H    -4.060000000     6.619000000     3.297000000
H    -3.095000000     5.634000000     2.673000000
O    -2.250000000     4.959000000     1.173000000
H    -1.674000000     4.775000000     0.432000000
H    -3.132000000     4.942000000     0.802000000
O     3.190000000     0.816000000    -0.379000000
H     3.264000000     0.267000000    -1.159000000
H     2.346000000     0.577000000     0.003000000
O    -0.078000000    -4.393000000    -2.062000000
H     0.365000000    -3.748000000    -2.613000000
H    -0.966000000    -4.052000000    -1.959000000
O    -0.835000000     6.785000000    -4.315000000
H     0.066000000     6.746000000    -3.993000000
H    -0.746000000     6.891000000    -5.262000000
O    -3.037000000     8.925000000    -1.278000000
H    -2.666000000     9.376000000    -2.036000000
H    -2.677000000     8.039000000    -1.326000000
O     1.745000000    -3.107000000    -3.645000000
H     1.967000000    -2.593000000    -2.869000000
H     1.741000000    -2.470000000    -4.361000000
O     4.273000000    -5.005000000     4.739000000
H     4.880000000    -4.268000000     4.662000000
H     4.469000000    -5.388000000     5.595000000
O    -2.984000000    -2.751000000    -1.718000000
H    -3.509000000    -3.499000000    -2.003000000
H    -3.520000000    -1.987000000    -1.931000000
O     1.063000000    -1.085000000    -5.887000000
H     1.060000000    -0.904000000    -6.827000000
H     0.730000000    -0.282000000    -5.487000000
O    -2.738000000    -4.797000000     5.226000000
H    -3.496000000    -4.741000000     4.645000000
H    -2.064000000    -4.273000000     4.793000000
O    -1.463000000    -2.949000000    -4.464000000
H    -1.252000000    -2.016000000    -4.457000000
H    -2.413000000    -2.979000000    -4.583000000
O     0.345000000     1.356000000    -4.473000000
H     0.524000000     2.137000000    -4.996000000
H    -0.052000000     1.692000000    -3.669000000
O    -2.907000000    -1.162000000     3.643000000
H    -2.784000000    -0.213000000     3.661000000
H    -3.016000000    -1.372000000     2.715000000
O     3.332000000     5.389000000     2.548000000
H     3.982000000     5.079000000     1.917000000
H     2.490000000     5.225000000     2.124000000
O    -5.073000000     5.446000000     0.949000000
H    -5.168000000     6.398000000     0.965000000
H    -5.369000000     5.161000000     1.813000000
O     3.919000000    -5.260000000     0.313000000
H     3.080000000    -5.024000000     0.710000000
H     3.714000000    -6.003000000    -0.255000000
O     4.230000000    -3.529000000    -2.082000000
H     4.271000000    -4.180000000    -1.381000000
H     3.568000000    -3.869000000    -2.685000000
O     1.774000000     7.494000000    -2.061000000
H     1.738000000     6.749000000    -1.461000000
H     1.021000000     8.033000000    -1.819000000
O     6.204000000    -1.360000000    -1.006000000
H     6.580000000    -1.651000000    -0.175000000
H     5.801000000    -2.145000000    -1.375000000
O     1.029000000     4.973000000    -0.684000000
H     1.573000000     4.288000000    -1.073000000
H     0.158000000     4.580000000    -0.620000000
O    -3.384000000    -1.777000000     0.935000000
H    -4.295000000    -2.065000000     0.995000000
H    -3.018000000    -2.292000000     0.215000000
O    -2.774000000     5.699000000    -2.496000000
H    -2.101000000     5.134000000    -2.117000000
H    -2.327000000     6.165000000    -3.202000000
O     5.008000000     1.084000000     1.470000000
H     4.660000000     0.444000000     2.091000000
H     4.410000000     1.042000000     0.723000000
O    -0.595000000    -1.320000000     6.597000000
H    -0.695000000    -1.571000000     5.679000000
H    -1.492000000    -1.257000000     6.927000000
O     1.022000000    -6.345000000     0.417000000
H     0.976000000    -5.691000000    -0.280000000
H     0.867000000    -7.179000000    -0.027000000
O    -0.485000000    -5.078000000    -5.845000000
H    -0.766000000    -4.226000000    -5.512000000
H    -0.784000000    -5.703000000    -5.184000000
O    -0.270000000    -6.974000000     5.678000000
H    -0.111000000    -6.367000000     4.955000000
H    -0.885000000    -7.615000000     5.321000000
O    -0.860000000    -2.871000000     4.094000000
H    -0.420000000    -3.072000000     3.268000000
H    -1.461000000    -2.158000000     3.877000000
O    -0.136000000     6.118000000     2.519000000
H     0.043000000     6.373000000     1.614000000
H    -0.937000000     5.597000000     2.467000000
O    -3.524000000     1.793000000    -3.513000000
H    -3.696000000     0.870000000    -3.328000000
H    -2.663000000     1.958000000    -3.129000000
O    -0.522000000     7.989000000     0.467000000
H    -0.356000000     8.763000000    -0.070000000
H    -0.847000000     8.338000000     1.297000000
O    -0.458000000    -6.462000000    -3.668000000
H    -0.443000000    -7.215000000    -3.078000000
H    -0.280000000    -5.711000000    -3.103000000
O    -3.967000000     1.178000000     1.188000000
H    -4.251000000     1.587000000     0.371000000
H    -3.534000000     0.370000000     0.914000000
O     2.132000000    -3.205000000     4.335000000
H     1.344000000    -3.669000000     4.052000000
H     2.842000000    -3.833000000     4.199000000
O    -1.099000000     2.684000000    -7.443000000
H    -1.178000000     3.164000000    -6.619000000
H    -0.248000000     2.248000000    -7.386000000
O     3.250000000    -2.226000000     6.956000000
H     3.963000000    -2.134000000     6.324000000
H     2.485000000    -2.444000000     6.425000000
