161
-3029.68021
C    -0.504000000     1.280000000     0.555000000
H    -0.683000000     2.230000000     1.053000000
C     0.099000000     0.273000000     1.237000000
H     0.323000000     0.407000000     2.292000000
C     0.492000000    -0.878000000     0.644000000
C     1.288000000    -1.903000000     1.397000000
H     2.059000000    -1.478000000     2.044000000
H     0.712000000    -2.554000000     2.058000000
H     1.949000000    -2.501000000     0.766000000
C     0.118000000    -1.142000000    -0.679000000
H     0.450000000    -2.066000000    -1.147000000
C    -0.531000000    -0.120000000    -1.417000000
H    -0.766000000    -0.258000000    -2.470000000
C    -0.771000000     1.114000000    -0.779000000
C    -1.325000000     2.245000000    -1.615000000
O    -1.223000000     2.104000000    -2.836000000
O    -1.681000000     3.253000000    -1.110000000
O     0.144000000    -5.473000000     3.438000000
H     0.233000000    -4.920000000     2.662000000
H    -0.251000000    -6.281000000     3.113000000
O    -4.615000000     0.938000000    -1.775000000
H    -4.383000000     1.839000000    -1.553000000
H    -5.055000000     0.603000000    -0.994000000
O     6.106000000    -1.228000000     2.844000000
H     6.647000000    -1.459000000     2.089000000
H     5.623000000    -0.451000000     2.565000000
O    -1.650000000     4.027000000    -5.424000000
H    -1.335000000     4.458000000    -4.630000000
H    -1.961000000     3.173000000    -5.126000000
O    -2.758000000     0.634000000     4.405000000
H    -2.018000000     1.237000000     4.334000000
H    -3.438000000     1.024000000     3.855000000
O     4.225000000    -1.903000000    -1.401000000
H     3.970000000    -2.822000000    -1.474000000
H     3.535000000    -1.425000000    -1.862000000
O     1.669000000     2.962000000    -6.599000000
H     2.444000000     2.909000000    -7.157000000
H     1.896000000     3.614000000    -5.935000000
O    -4.358000000     3.422000000    -0.622000000
H    -4.669000000     4.311000000    -0.450000000
H    -3.427000000     3.528000000    -0.819000000
O    -4.000000000     4.013000000    -3.658000000
H    -3.197000000     4.399000000    -3.308000000
H    -4.446000000     3.653000000    -2.892000000
O     2.448000000     0.075000000    -3.087000000
H     3.149000000     0.687000000    -3.311000000
H     2.069000000     0.429000000    -2.282000000
O     5.006000000    -3.729000000     3.351000000
H     5.225000000    -2.802000000     3.450000000
H     5.280000000    -3.946000000     2.460000000
O     5.923000000    -4.820000000     0.567000000
H     6.153000000    -3.921000000     0.331000000
H     6.713000000    -5.169000000     0.978000000
O    -3.378000000    -1.728000000    -3.056000000
H    -3.375000000    -0.821000000    -2.749000000
H    -4.284000000    -2.016000000    -2.941000000
O    -0.639000000     2.536000000     3.864000000
H     0.183000000     2.655000000     3.389000000
H    -0.918000000     3.424000000     4.088000000
O    -1.588000000     5.225000000     4.325000000
H    -1.740000000     6.152000000     4.509000000
H    -2.306000000     4.976000000     3.744000000
O    -0.953000000     4.879000000     1.002000000
H    -1.007000000     4.096000000     0.454000000
H    -1.780000000     4.893000000     1.483000000
O    -2.029000000     0.788000000    -7.365000000
H    -1.725000000     0.985000000    -6.479000000
H    -2.961000000     1.008000000    -7.353000000
O     3.538000000     2.590000000    -0.551000000
H     3.931000000     3.315000000    -0.065000000
H     2.767000000     2.347000000    -0.037000000
O    -0.556000000    -4.911000000     0.701000000
H    -0.922000000    -4.505000000    -0.085000000
H    -0.910000000    -5.800000000     0.698000000
O    -3.240000000     7.609000000    -1.615000000
H    -2.813000000     8.169000000    -2.263000000
H    -3.090000000     6.719000000    -1.933000000
O     2.057000000     2.010000000     5.571000000
H     1.412000000     2.223000000     4.897000000
H     1.684000000     1.259000000     6.031000000
O    -1.717000000    -3.747000000    -1.722000000
H    -1.656000000    -4.466000000    -2.352000000
H    -2.141000000    -3.039000000    -2.207000000
O     2.052000000    -1.369000000    -6.573000000
H     2.459000000    -0.906000000    -7.305000000
H     1.436000000    -0.737000000    -6.203000000
O    -1.248000000    -4.648000000     6.044000000
H    -1.062000000    -3.721000000     5.899000000
H    -1.507000000    -4.978000000     5.183000000
O    -2.481000000    -3.132000000    -6.655000000
H    -3.276000000    -3.469000000    -6.242000000
H    -2.117000000    -2.523000000    -6.013000000
O     1.346000000     3.458000000    -2.918000000
H     1.878000000     3.778000000    -3.646000000
H     0.636000000     2.970000000    -3.336000000
O    -1.267000000    -2.284000000     4.674000000
H    -1.903000000    -1.616000000     4.933000000
H    -1.279000000    -2.267000000     3.717000000
O     1.729000000     3.464000000     2.373000000
H     2.665000000     3.582000000     2.530000000
H     1.558000000     3.950000000     1.566000000
O    -3.297000000     4.547000000     2.308000000
H    -4.136000000     4.749000000     1.893000000
H    -3.437000000     3.700000000     2.732000000
O     3.938000000    -4.534000000    -1.618000000
H     3.098000000    -4.957000000    -1.443000000
H     4.481000000    -4.756000000    -0.861000000
O     6.231000000    -0.029000000    -1.671000000
H     6.722000000    -0.618000000    -2.243000000
H     5.373000000    -0.444000000    -1.578000000
O     1.771000000     4.961000000    -0.200000000
H     0.814000000     4.952000000    -0.229000000
H     2.037000000     5.098000000    -1.110000000
O    -2.274000000    -3.102000000     2.125000000
H    -2.614000000    -2.723000000     1.314000000
H    -2.270000000    -4.046000000     1.964000000
O    -1.749000000     5.344000000    -2.790000000
H    -1.462000000     4.653000000    -2.193000000
H    -1.005000000     5.944000000    -2.839000000
O     5.147000000     0.668000000     0.963000000
H     5.445000000     0.211000000     0.176000000
H     4.679000000     1.435000000     0.633000000
O     1.931000000    -5.903000000     0.203000000
H     1.114000000    -5.415000000     0.304000000
H     1.901000000    -6.566000000     0.894000000
O    -0.803000000    -5.466000000    -4.050000000
H    -1.306000000    -5.782000000    -4.801000000
H    -0.010000000    -5.091000000    -4.434000000
O    -1.058000000    -1.844000000    -4.952000000
H    -1.799000000    -1.784000000    -4.350000000
H    -0.726000000    -0.948000000    -5.015000000
O     2.280000000    -4.951000000     5.248000000
H     1.377000000    -4.914000000     4.932000000
H     2.341000000    -4.236000000     5.882000000
O     1.423000000    -1.844000000     5.252000000
H     1.085000000    -1.226000000     5.900000000
H     0.642000000    -2.183000000     4.814000000
O     0.386000000     7.058000000     2.035000000
H     0.261000000     7.670000000     1.310000000
H    -0.117000000     6.284000000     1.785000000
O    -3.166000000     0.837000000    -4.137000000
H    -3.715000000     1.042000000    -3.380000000
H    -2.309000000     1.202000000    -3.918000000
O    -0.298000000     8.079000000    -0.577000000
H     0.068000000     7.550000000    -1.286000000
H    -1.153000000     8.358000000    -0.902000000
O     0.944000000    -3.584000000    -5.434000000
H     1.541000000    -2.962000000    -5.849000000
H     0.211000000    -3.048000000    -5.131000000
O    -3.175000000    -0.020000000     1.161000000
H    -2.222000000     0.048000000     1.096000000
H    -3.432000000    -0.529000000     0.392000000
O    -0.594000000     1.317000000    -5.101000000
H    -0.736000000     1.483000000    -4.169000000
H    -0.009000000     2.020000000    -5.383000000
O     4.150000000    -1.627000000     6.084000000
H     4.486000000    -2.419000000     6.504000000
H     3.331000000    -1.903000000     5.672000000
O    -4.825000000     1.784000000     2.422000000
H    -4.129000000     1.384000000     1.901000000
H    -5.513000000     1.987000000     1.788000000
