161
-3017.01552
C     0.189000000     1.426000000     0.566000000
H     0.409000000     2.456000000     0.836000000
C     0.782000000     0.238000000     1.004000000
H     1.625000000     0.417000000     1.667000000
C     0.560000000    -1.006000000     0.462000000
C     1.208000000    -2.227000000     0.970000000
H     0.574000000    -2.808000000     1.643000000
H     1.191000000    -2.899000000     0.109000000
H     2.106000000    -1.977000000     1.539000000
C    -0.405000000    -1.118000000    -0.503000000
H    -0.647000000    -2.031000000    -1.041000000
C    -0.900000000     0.013000000    -1.046000000
H    -1.556000000    -0.114000000    -1.904000000
C    -0.713000000     1.283000000    -0.472000000
C    -1.304000000     2.482000000    -1.103000000
O    -1.830000000     2.317000000    -2.172000000
O    -1.281000000     3.543000000    -0.549000000
O     1.819000000    -6.390000000     3.373000000
H     2.106000000    -6.450000000     2.462000000
H     0.885000000    -6.189000000     3.318000000
O     1.854000000     3.837000000    -4.769000000
H     2.401000000     4.620000000    -4.829000000
H     1.001000000     4.162000000    -4.480000000
O    -5.434000000     3.796000000    -5.470000000
H    -5.117000000     3.509000000    -4.613000000
H    -5.692000000     2.988000000    -5.913000000
O    -1.851000000     3.825000000    -4.224000000
H    -1.589000000     4.723000000    -4.022000000
H    -1.679000000     3.338000000    -3.418000000
O    -2.036000000     2.760000000     4.331000000
H    -1.147000000     2.986000000     4.604000000
H    -2.100000000     3.082000000     3.432000000
O     3.364000000     3.253000000    -1.140000000
H     3.593000000     3.059000000    -2.048000000
H     3.502000000     2.427000000    -0.676000000
O    -2.744000000    -3.740000000     2.567000000
H    -3.284000000    -4.476000000     2.855000000
H    -3.178000000    -3.419000000     1.777000000
O     5.038000000     1.274000000     3.091000000
H     5.710000000     0.913000000     3.670000000
H     4.267000000     0.731000000     3.253000000
O    -0.100000000    -4.229000000     5.913000000
H     0.634000000    -4.120000000     5.308000000
H    -0.850000000    -3.859000000     5.447000000
O     5.086000000     4.826000000     0.185000000
H     4.577000000     4.118000000    -0.211000000
H     5.650000000     5.140000000    -0.521000000
O    -6.249000000     3.616000000    -1.231000000
H    -5.627000000     3.223000000    -1.843000000
H    -5.836000000     3.518000000    -0.373000000
O     1.211000000    -0.658000000    -4.064000000
H     0.530000000    -0.032000000    -3.817000000
H     2.009000000    -0.133000000    -4.122000000
O     0.961000000     2.882000000     4.560000000
H     1.125000000     3.323000000     3.726000000
H     0.910000000     3.593000000     5.199000000
O    -2.566000000     3.956000000     1.759000000
H    -2.086000000     3.644000000     0.993000000
H    -2.272000000     4.860000000     1.874000000
O     3.555000000     0.564000000    -0.711000000
H     3.933000000     0.222000000    -1.521000000
H     2.688000000     0.161000000    -0.662000000
O     1.735000000    -5.354000000    -1.353000000
H     1.604000000    -4.535000000    -1.830000000
H     1.078000000    -5.950000000    -1.713000000
O    -0.774000000     6.371000000    -3.574000000
H    -0.320000000     7.197000000    -3.413000000
H    -1.305000000     6.537000000    -4.354000000
O     1.695000000    -3.260000000    -3.182000000
H     1.759000000    -2.322000000    -3.360000000
H     0.775000000    -3.471000000    -3.340000000
O    -0.575000000    -2.238000000    -6.582000000
H    -0.812000000    -2.678000000    -5.766000000
H    -1.398000000    -2.167000000    -7.064000000
O     4.783000000    -3.144000000     4.293000000
H     5.543000000    -3.157000000     3.711000000
H     5.113000000    -3.480000000     5.126000000
O    -3.986000000    -2.396000000    -3.894000000
H    -4.541000000    -2.728000000    -3.188000000
H    -4.404000000    -1.578000000    -4.163000000
O    -0.812000000    -5.486000000     3.205000000
H    -1.191000000    -6.289000000     2.849000000
H    -1.319000000    -4.782000000     2.801000000
O     0.423000000     1.442000000    -6.508000000
H    -0.127000000     0.835000000    -7.003000000
H     0.150000000     1.326000000    -5.598000000
O    -2.363000000    -2.498000000     5.048000000
H    -1.611000000    -1.937000000     4.856000000
H    -2.653000000    -2.811000000     4.191000000
O    -1.119000000    -2.501000000    -3.905000000
H    -1.929000000    -1.997000000    -3.994000000
H    -0.422000000    -1.860000000    -4.041000000
O    -1.159000000     0.764000000    -4.089000000
H    -1.479000000     1.281000000    -4.828000000
H    -1.382000000     1.285000000    -3.318000000
O    -3.101000000    -0.482000000     2.567000000
H    -2.640000000     0.333000000     2.368000000
H    -2.564000000    -1.165000000     2.167000000
O     3.494000000     5.036000000     4.379000000
H     4.386000000     4.773000000     4.149000000
H     2.941000000     4.595000000     3.735000000
O    -1.640000000     6.729000000     2.095000000
H    -1.203000000     7.564000000     2.266000000
H    -2.565000000     6.903000000     2.266000000
O     4.288000000    -3.539000000    -4.000000000
H     4.525000000    -4.269000000    -3.429000000
H     3.330000000    -3.535000000    -3.998000000
O     0.201000000     7.698000000     0.006000000
H     0.195000000     6.741000000    -0.019000000
H    -0.262000000     7.919000000     0.813000000
O     4.960000000    -1.250000000    -2.386000000
H     5.224000000    -1.641000000    -1.553000000
H     4.685000000    -1.994000000    -2.923000000
O     1.290000000     4.723000000     0.033000000
H     1.967000000     4.361000000    -0.538000000
H     0.525000000     4.167000000    -0.120000000
O    -2.694000000    -3.913000000    -0.311000000
H    -3.380000000    -3.517000000    -0.848000000
H    -2.712000000    -4.841000000    -0.546000000
O    -2.413000000     5.820000000    -1.528000000
H    -2.090000000     5.011000000    -1.131000000
H    -1.806000000     5.993000000    -2.247000000
O     5.749000000     1.217000000     0.629000000
H     5.493000000     1.179000000     1.551000000
H     4.948000000     1.006000000     0.149000000
O     0.776000000     0.455000000     5.798000000
H     0.531000000    -0.302000000     5.265000000
H     1.040000000     1.120000000     5.162000000
O     2.817000000    -6.752000000     0.688000000
H     3.761000000    -6.612000000     0.767000000
H     2.586000000    -6.357000000    -0.153000000
O    -0.687000000    -5.450000000    -3.656000000
H    -0.845000000    -4.511000000    -3.752000000
H    -0.177000000    -5.687000000    -4.431000000
O    -5.337000000    -0.029000000    -4.449000000
H    -6.196000000    -0.451000000    -4.450000000
H    -5.297000000     0.435000000    -5.285000000
O     0.322000000    -1.681000000     3.950000000
H     1.080000000    -2.231000000     4.151000000
H     0.257000000    -1.703000000     2.995000000
O     0.407000000     4.815000000     2.539000000
H     0.708000000     4.785000000     1.631000000
H     0.246000000     5.743000000     2.707000000
O    -4.570000000     2.121000000    -2.963000000
H    -4.725000000     1.227000000    -3.270000000
H    -3.648000000     2.130000000    -2.706000000
O    -5.074000000     3.319000000     1.174000000
H    -5.168000000     2.668000000     1.869000000
H    -4.163000000     3.605000000     1.235000000
O     2.112000000    -3.709000000     4.215000000
H     2.059000000    -4.599000000     3.869000000
H     3.046000000    -3.500000000     4.196000000
O    -2.134000000     2.548000000    -6.546000000
H    -2.348000000     3.026000000    -5.745000000
H    -1.272000000     2.879000000    -6.800000000
O     3.854000000    -1.160000000     6.308000000
H     4.274000000    -1.710000000     6.969000000
H     4.135000000    -1.532000000     5.473000000
O    -4.328000000     6.735000000     0.368000000
H    -3.818000000     6.181000000    -0.223000000
H    -5.145000000     6.900000000    -0.104000000
