161
-3043.28077
C    -0.676000000     0.928000000     0.856000000
H    -1.134000000     1.535000000     1.633000000
C     0.713000000     0.608000000     0.863000000
H     1.312000000     1.043000000     1.658000000
C     1.236000000    -0.277000000    -0.006000000
C     2.585000000    -0.788000000     0.255000000
H     2.938000000    -1.469000000    -0.523000000
H     3.267000000     0.065000000     0.268000000
H     2.638000000    -1.255000000     1.240000000
C     0.410000000    -0.867000000    -0.951000000
H     0.761000000    -1.639000000    -1.630000000
C    -0.938000000    -0.510000000    -1.038000000
H    -1.592000000    -0.857000000    -1.833000000
C    -1.515000000     0.449000000    -0.156000000
C    -2.923000000     0.959000000    -0.240000000
O    -3.652000000     0.502000000    -1.102000000
O    -3.424000000     1.575000000     0.708000000
O     4.462000000     2.066000000    -2.412000000
H     5.044000000     1.442000000    -2.846000000
H     4.948000000     2.891000000    -2.420000000
O    -3.512000000     0.486000000    -3.720000000
H    -3.448000000     0.477000000    -2.765000000
H    -3.186000000     1.349000000    -3.974000000
O     4.043000000    -2.104000000    -3.295000000
H     4.889000000    -1.923000000    -2.886000000
H     3.676000000    -2.822000000    -2.779000000
O    -4.303000000     0.056000000     2.701000000
H    -3.493000000    -0.430000000     2.860000000
H    -4.046000000     0.762000000     2.109000000
O     4.167000000     1.105000000     5.037000000
H     4.369000000     1.084000000     5.973000000
H     4.524000000     0.285000000     4.696000000
O     3.602000000    -3.272000000     5.562000000
H     2.879000000    -3.490000000     4.973000000
H     3.218000000    -2.671000000     6.200000000
O    -6.564000000     5.299000000     0.783000000
H    -6.407000000     4.369000000     0.618000000
H    -7.314000000     5.314000000     1.377000000
O     2.185000000     2.946000000    -1.198000000
H     1.400000000     2.504000000    -1.520000000
H     2.871000000     2.698000000    -1.817000000
O     0.824000000     5.861000000     2.552000000
H     1.114000000     5.486000000     1.721000000
H     1.398000000     6.615000000     2.688000000
O    -1.899000000    -1.393000000     3.466000000
H    -2.303000000    -2.172000000     3.850000000
H    -1.438000000    -1.720000000     2.693000000
O     1.920000000    -4.517000000    -2.823000000
H     1.065000000    -4.188000000    -3.099000000
H     1.912000000    -4.435000000    -1.869000000
O    -2.899000000    -2.189000000    -3.754000000
H    -3.162000000    -1.272000000    -3.826000000
H    -3.145000000    -2.440000000    -2.864000000
O     2.782000000     4.267000000     1.101000000
H     3.457000000     3.766000000     1.558000000
H     2.601000000     3.760000000     0.310000000
O    -6.015000000     2.484000000     0.663000000
H    -6.114000000     2.722000000     1.585000000
H    -5.175000000     2.027000000     0.623000000
O    -4.832000000    -2.072000000    -1.238000000
H    -5.758000000    -2.054000000    -0.995000000
H    -4.541000000    -1.166000000    -1.142000000
O    -5.750000000    -0.495000000    -5.408000000
H    -5.303000000    -1.027000000    -6.066000000
H    -5.082000000    -0.327000000    -4.743000000
O     1.492000000     1.134000000     4.842000000
H     2.411000000     1.224000000     4.588000000
H     1.151000000     2.028000000     4.824000000
O    -7.482000000    -1.061000000    -1.475000000
H    -7.209000000    -0.208000000    -1.813000000
H    -8.191000000    -1.334000000    -2.058000000
O    -2.596000000     3.745000000     2.240000000
H    -3.222000000     3.073000000     1.973000000
H    -2.424000000     3.561000000     3.163000000
O    -2.099000000     4.074000000     4.986000000
H    -2.657000000     4.672000000     5.485000000
H    -2.355000000     3.202000000     5.285000000
O    -2.582000000    -5.532000000    -3.964000000
H    -2.096000000    -4.726000000    -3.787000000
H    -3.438000000    -5.389000000    -3.560000000
O     5.509000000    -1.137000000     4.000000000
H     5.372000000    -2.058000000     4.220000000
H     6.392000000    -1.107000000     3.632000000
O     3.286000000     0.605000000    -5.495000000
H     2.733000000     0.838000000    -4.750000000
H     3.204000000    -0.346000000    -5.565000000
O     5.576000000    -3.910000000     3.000000000
H     6.086000000    -4.547000000     2.499000000
H     4.692000000    -4.278000000     3.025000000
O     1.289000000    -2.837000000     4.200000000
H     0.544000000    -3.382000000     4.454000000
H     0.920000000    -2.200000000     3.587000000
O     2.768000000    -5.082000000     2.700000000
H     2.427000000    -5.917000000     3.020000000
H     2.280000000    -4.420000000     3.190000000
O     2.723000000    -1.866000000    -5.524000000
H     1.816000000    -2.152000000    -5.415000000
H     3.129000000    -2.024000000    -4.672000000
O    -6.784000000    -0.729000000     2.131000000
H    -6.986000000    -0.417000000     1.248000000
H    -5.871000000    -0.477000000     2.271000000
O    -0.211000000     2.253000000    -2.168000000
H    -0.224000000     1.739000000    -1.361000000
H    -0.375000000     3.152000000    -1.883000000
O    -0.239000000    -3.368000000    -4.026000000
H    -0.295000000    -3.479000000    -4.975000000
H    -0.955000000    -2.770000000    -3.812000000
O    -5.941000000     1.454000000    -1.760000000
H    -5.049000000     1.137000000    -1.624000000
H    -6.244000000     1.702000000    -0.886000000
O    -4.240000000     4.147000000    -0.638000000
H    -4.546000000     3.241000000    -0.592000000
H    -4.271000000     4.455000000     0.268000000
O     1.846000000    -4.189000000    -0.109000000
H     2.498000000    -3.828000000     0.491000000
H     1.081000000    -4.357000000     0.441000000
O    -0.248000000    -2.624000000     1.613000000
H    -0.396000000    -3.559000000     1.751000000
H    -0.356000000    -2.501000000     0.670000000
O    -5.789000000     3.253000000     3.069000000
H    -5.456000000     3.246000000     3.966000000
H    -6.258000000     4.084000000     2.994000000
O     0.671000000     3.601000000     4.206000000
H     0.897000000     4.156000000     3.460000000
H    -0.172000000     3.939000000     4.510000000
O     5.371000000     2.340000000     0.518000000
H     5.339000000     2.179000000    -0.425000000
H     5.660000000     1.508000000     0.893000000
O    -1.803000000     6.458000000     2.156000000
H    -1.986000000     5.540000000     1.957000000
H    -0.851000000     6.498000000     2.248000000
O    -4.538000000    -4.648000000    -2.025000000
H    -5.456000000    -4.905000000    -1.943000000
H    -4.498000000    -3.773000000    -1.640000000
O    -5.516000000     4.464000000    -3.126000000
H    -5.230000000     4.171000000    -2.261000000
H    -6.175000000     5.134000000    -2.945000000
O     6.479000000     0.158000000     1.455000000
H     7.162000000    -0.472000000     1.227000000
H     5.813000000    -0.362000000     1.904000000
O    -4.878000000    -0.103000000     5.440000000
H    -4.734000000     0.058000000     4.507000000
H    -4.303000000     0.522000000     5.882000000
O    -1.331000000     4.243000000    -0.538000000
H    -0.763000000     4.532000000     0.177000000
H    -2.140000000     3.969000000    -0.105000000
O    -6.928000000     2.429000000    -4.091000000
H    -6.396000000     3.222000000    -4.025000000
H    -6.786000000     1.975000000    -3.261000000
O    -8.956000000     2.489000000     0.635000000
H    -9.209000000     2.900000000    -0.192000000
H    -8.008000000     2.374000000     0.565000000
O    -1.397000000     2.085000000    -4.576000000
H    -0.764000000     2.096000000    -5.294000000
H    -0.868000000     1.942000000    -3.792000000
O    -0.808000000    -0.161000000     5.736000000
H     0.003000000     0.250000000     5.437000000
H    -1.169000000    -0.577000000     4.953000000
O     6.345000000    -1.318000000    -2.307000000
H     7.219000000    -1.708000000    -2.280000000
H     6.501000000    -0.378000000    -2.218000000
