161
-3076.92502
C     0.436000000     1.226000000     0.658000000
H     0.871000000     2.090000000     1.153000000
C     0.856000000    -0.045000000     0.951000000
H     1.769000000    -0.085000000     1.541000000
C     0.311000000    -1.168000000     0.327000000
C     0.846000000    -2.467000000     0.683000000
H     1.889000000    -2.530000000     0.367000000
H     0.559000000    -2.570000000     1.731000000
H     0.473000000    -3.282000000     0.059000000
C    -0.629000000    -0.983000000    -0.730000000
H    -1.055000000    -1.831000000    -1.261000000
C    -1.125000000     0.303000000    -0.950000000
H    -1.904000000     0.392000000    -1.704000000
C    -0.528000000     1.421000000    -0.281000000
C    -0.857000000     2.795000000    -0.708000000
O    -1.726000000     2.988000000    -1.579000000
O    -0.188000000     3.738000000    -0.264000000
O    -0.558000000     2.489000000    -3.986000000
H     0.173000000     3.106000000    -4.040000000
H    -1.083000000     2.804000000    -3.250000000
O     1.616000000     5.023000000    -1.758000000
H     2.368000000     4.541000000    -1.412000000
H     0.886000000     4.763000000    -1.196000000
O     1.059000000     7.225000000    -3.022000000
H     1.298000000     6.556000000    -2.380000000
H     0.108000000     7.151000000    -3.102000000
O    -1.182000000     0.327000000    -5.815000000
H    -1.284000000     1.206000000    -5.450000000
H    -1.621000000     0.367000000    -6.664000000
O     2.488000000     1.128000000    -1.659000000
H     3.123000000     1.777000000    -1.355000000
H     1.992000000     0.892000000    -0.876000000
O    -1.868000000    -1.777000000     5.030000000
H    -2.440000000    -1.089000000     5.371000000
H    -1.751000000    -1.555000000     4.106000000
O     0.315000000    -6.055000000    -0.630000000
H     0.363000000    -6.564000000     0.180000000
H    -0.545000000    -6.265000000    -0.994000000
O    -1.514000000    -5.577000000     2.436000000
H    -1.028000000    -6.380000000     2.249000000
H    -1.079000000    -5.208000000     3.205000000
O    -2.837000000     5.346000000    -1.000000000
H    -2.116000000     5.681000000    -0.468000000
H    -2.548000000     4.475000000    -1.273000000
O    -1.923000000    -5.615000000    -2.090000000
H    -2.792000000    -5.516000000    -2.480000000
H    -1.360000000    -5.043000000    -2.611000000
O     2.777000000     2.633000000     4.610000000
H     2.734000000     3.091000000     3.771000000
H     2.141000000     3.086000000     5.164000000
O    -2.985000000     5.591000000    -5.696000000
H    -3.101000000     5.986000000    -6.560000000
H    -2.124000000     5.175000000    -5.736000000
O     2.049000000    -2.923000000    -2.596000000
H     1.097000000    -3.005000000    -2.544000000
H     2.378000000    -3.789000000    -2.356000000
O    -1.814000000     6.393000000    -3.167000000
H    -2.303000000     5.953000000    -2.472000000
H    -2.314000000     6.211000000    -3.963000000
O    -4.582000000    -3.162000000    -0.431000000
H    -3.914000000    -3.666000000     0.034000000
H    -4.518000000    -3.460000000    -1.338000000
O    -5.870000000     1.520000000    -1.852000000
H    -6.410000000     2.141000000    -2.341000000
H    -5.082000000     1.417000000    -2.385000000
O     1.533000000     4.075000000    -4.445000000
H     1.478000000     4.379000000    -3.539000000
H     2.409000000     4.334000000    -4.731000000
O    -4.117000000    -4.825000000    -3.361000000
H    -4.302000000    -5.224000000    -4.212000000
H    -4.292000000    -3.893000000    -3.490000000
O     6.031000000    -1.545000000    -0.341000000
H     5.179000000    -1.315000000    -0.711000000
H     6.591000000    -0.796000000    -0.545000000
O    -6.608000000    -1.104000000    -0.705000000
H    -5.899000000    -1.687000000    -0.430000000
H    -6.205000000    -0.237000000    -0.738000000
O     5.660000000    -1.326000000     2.687000000
H     4.799000000    -0.957000000     2.885000000
H     5.867000000    -0.993000000     1.813000000
O    -3.602000000     1.686000000    -3.307000000
H    -2.857000000     1.811000000    -2.720000000
H    -3.812000000     2.566000000    -3.618000000
O    -2.907000000     5.021000000     2.232000000
H    -2.859000000     5.538000000     3.036000000
H    -2.378000000     4.245000000     2.414000000
O    -1.208000000    -3.986000000     6.305000000
H    -1.779000000    -4.710000000     6.050000000
H    -1.540000000    -3.235000000     5.813000000
O    -0.882000000    -3.475000000    -3.098000000
H    -1.771000000    -3.207000000    -2.865000000
H    -0.528000000    -2.732000000    -3.587000000
O    -6.153000000     2.100000000     0.790000000
H    -5.764000000     2.856000000     1.230000000
H    -5.849000000     2.167000000    -0.115000000
O     2.960000000     4.285000000     2.359000000
H     3.536000000     5.023000000     2.560000000
H     2.167000000     4.690000000     2.005000000
O    -2.109000000    -0.616000000     2.514000000
H    -2.985000000    -0.246000000     2.409000000
H    -1.612000000    -0.270000000     1.772000000
O     4.148000000    -1.141000000    -2.179000000
H     3.399000000    -1.734000000    -2.250000000
H     3.761000000    -0.265000000    -2.192000000
O     3.485000000     3.507000000    -0.316000000
H     4.290000000     4.006000000    -0.451000000
H     3.429000000     3.394000000     0.633000000
O     0.832000000    -4.932000000     4.657000000
H     0.122000000    -4.587000000     5.199000000
H     1.627000000    -4.746000000     5.157000000
O     4.417000000    -5.984000000     0.247000000
H     4.044000000    -5.944000000     1.127000000
H     5.364000000    -5.984000000     0.388000000
O     1.000000000    -1.919000000     5.663000000
H     1.048000000    -1.121000000     6.191000000
H     0.107000000    -1.926000000     5.320000000
O     3.382000000    -0.094000000     3.807000000
H     3.161000000    -0.603000000     4.587000000
H     3.292000000     0.818000000     4.082000000
O    -3.049000000    -5.245000000     0.306000000
H    -2.479000000    -5.170000000     1.071000000
H    -2.452000000    -5.420000000    -0.421000000
O    -0.346000000     2.486000000     4.937000000
H    -0.115000000     3.337000000     5.309000000
H    -0.196000000     2.586000000     3.997000000
O     2.878000000    -6.365000000     2.632000000
H     2.421000000    -6.928000000     3.257000000
H     2.717000000    -5.476000000     2.947000000
O    -3.399000000    -0.955000000    -3.944000000
H    -2.592000000    -0.758000000    -4.419000000
H    -3.713000000    -0.103000000    -3.641000000
O    -0.243000000     4.118000000     2.603000000
H    -0.352000000     5.049000000     2.795000000
H    -0.480000000     4.035000000     1.679000000
O    -5.310000000     4.898000000     0.921000000
H    -4.585000000     5.109000000     1.509000000
H    -4.958000000     5.047000000     0.044000000
O     2.794000000    -5.492000000    -1.695000000
H     3.505000000    -5.586000000    -1.061000000
H     2.009000000    -5.754000000    -1.215000000
O    -0.471000000     4.710000000    -6.506000000
H    -0.347000000     4.341000000    -7.380000000
H     0.096000000     4.184000000    -5.941000000
O    -5.204000000     7.105000000    -2.052000000
H    -4.508000000     6.455000000    -1.954000000
H    -4.794000000     7.934000000    -1.807000000
O     1.776000000     0.644000000    -4.212000000
H     0.930000000     1.076000000    -4.095000000
H     2.223000000     0.764000000    -3.374000000
O     0.242000000    -1.557000000    -4.724000000
H     1.068000000    -1.072000000    -4.728000000
H    -0.383000000    -0.968000000    -5.146000000
O    -4.749000000     3.668000000    -5.057000000
H    -4.865000000     3.273000000    -5.921000000
H    -4.046000000     4.306000000    -5.177000000
O     3.200000000    -3.748000000     3.563000000
H     2.312000000    -3.392000000     3.593000000
H     3.743000000    -3.014000000     3.274000000
O    -1.231000000    -4.798000000    -5.574000000
H    -1.034000000    -4.309000000    -4.775000000
H    -1.064000000    -5.712000000    -5.343000000
