161
-3048.39656
C    -0.667000000     0.952000000     0.881000000
H    -1.032000000     1.576000000     1.692000000
C    -0.382000000    -0.333000000     1.240000000
H    -0.771000000    -0.727000000     2.175000000
C     0.266000000    -1.151000000     0.328000000
C     0.402000000    -2.599000000     0.536000000
H    -0.345000000    -3.152000000    -0.038000000
H     1.416000000    -2.902000000     0.266000000
H     0.242000000    -3.054000000     1.516000000
C     0.552000000    -0.638000000    -0.949000000
H     1.075000000    -1.299000000    -1.635000000
C     0.356000000     0.678000000    -1.326000000
H     0.629000000     0.960000000    -2.340000000
C    -0.225000000     1.518000000    -0.376000000
C    -0.485000000     2.997000000    -0.599000000
O    -0.332000000     3.435000000    -1.725000000
O    -0.707000000     3.733000000     0.351000000
O    -0.105000000     5.975000000    -2.226000000
H    -0.096000000     5.017000000    -2.215000000
H    -0.955000000     6.210000000    -1.853000000
O     3.195000000     5.062000000    -0.180000000
H     2.727000000     4.406000000     0.337000000
H     3.159000000     4.730000000    -1.078000000
O    -4.999000000     2.472000000     2.546000000
H    -5.846000000     2.785000000     2.230000000
H    -4.973000000     2.737000000     3.465000000
O    -5.577000000    -4.537000000    -0.831000000
H    -5.814000000    -5.442000000    -1.032000000
H    -4.627000000    -4.558000000    -0.717000000
O    -3.441000000    -0.051000000     2.850000000
H    -4.278000000    -0.087000000     3.314000000
H    -3.277000000     0.884000000     2.724000000
O     4.721000000    -5.549000000     0.301000000
H     5.094000000    -5.054000000     1.031000000
H     4.490000000    -4.883000000    -0.347000000
O     2.244000000     7.496000000    -0.844000000
H     1.414000000     7.133000000    -1.151000000
H     2.710000000     6.748000000    -0.470000000
O     2.520000000    -3.769000000     4.330000000
H     3.438000000    -3.784000000     4.602000000
H     2.438000000    -4.505000000     3.724000000
O    -3.034000000    -3.226000000     4.333000000
H    -2.802000000    -3.777000000     3.586000000
H    -3.343000000    -3.841000000     4.998000000
O    -1.309000000     1.360000000     5.198000000
H    -1.174000000     0.478000000     4.852000000
H    -0.941000000     1.938000000     4.530000000
O    -1.303000000    -1.252000000     5.071000000
H    -1.878000000    -1.794000000     4.531000000
H    -1.581000000    -1.429000000     5.970000000
O    -2.188000000     7.201000000     0.820000000
H    -2.533000000     7.546000000    -0.004000000
H    -2.382000000     7.881000000     1.465000000
O    -0.308000000    -7.132000000     2.291000000
H     0.406000000    -6.495000000     2.318000000
H    -0.399000000    -7.351000000     1.363000000
O    -1.086000000    -4.077000000    -2.885000000
H    -0.210000000    -4.383000000    -2.652000000
H    -0.940000000    -3.229000000    -3.304000000
O     2.032000000     3.149000000     1.364000000
H     1.210000000     2.760000000     1.065000000
H     2.491000000     2.432000000     1.802000000
O    -1.318000000     1.616000000    -3.997000000
H    -1.316000000     2.149000000    -3.202000000
H    -2.137000000     1.122000000    -3.951000000
O     1.733000000     7.384000000     2.850000000
H     0.994000000     6.848000000     2.561000000
H     1.625000000     8.212000000     2.382000000
O     0.906000000     7.848000000    -4.049000000
H     1.788000000     7.509000000    -4.199000000
H     0.562000000     7.314000000    -3.332000000
O     1.681000000    -1.204000000     4.319000000
H     0.740000000    -1.313000000     4.452000000
H     2.020000000    -2.097000000     4.259000000
O    -2.916000000     0.066000000    -1.730000000
H    -2.142000000    -0.479000000    -1.587000000
H    -3.002000000     0.575000000    -0.924000000
O     3.264000000     4.561000000    -2.764000000
H     4.123000000     4.711000000    -3.158000000
H     2.828000000     3.954000000    -3.363000000
O     2.010000000     4.965000000    -5.898000000
H     1.905000000     4.679000000    -4.990000000
H     2.851000000     5.423000000    -5.909000000
O    -0.510000000    -6.483000000    -0.578000000
H     0.165000000    -6.044000000    -1.095000000
H    -0.780000000    -7.225000000    -1.118000000
O     4.023000000    -4.069000000    -1.921000000
H     4.550000000    -4.608000000    -2.511000000
H     4.549000000    -3.281000000    -1.783000000
O     0.800000000    -4.028000000     6.562000000
H    -0.030000000    -3.578000000     6.402000000
H     1.287000000    -3.930000000     5.743000000
O    -2.840000000     4.808000000    -0.764000000
H    -2.016000000     4.517000000    -0.374000000
H    -2.760000000     5.761000000    -0.808000000
O     3.809000000    -1.341000000    -5.643000000
H     3.798000000    -2.294000000    -5.735000000
H     2.885000000    -1.092000000    -5.624000000
O     4.724000000    -1.433000000    -1.519000000
H     4.433000000    -0.524000000    -1.457000000
H     5.535000000    -1.460000000    -1.011000000
O    -3.607000000    -4.858000000    -3.708000000
H    -2.785000000    -4.567000000    -3.313000000
H    -3.638000000    -4.412000000    -4.554000000
O     4.643000000    -1.400000000     2.010000000
H     5.141000000    -1.144000000     2.786000000
H     3.728000000    -1.337000000     2.281000000
O    -3.535000000     2.209000000     0.150000000
H    -3.198000000     3.094000000     0.009000000
H    -3.910000000     2.232000000     1.030000000
O     1.468000000    -5.074000000    -1.883000000
H     2.275000000    -4.560000000    -1.859000000
H     1.706000000    -5.871000000    -2.358000000
O    -1.106000000    -2.308000000    -4.871000000
H    -1.345000000    -2.696000000    -5.713000000
H    -1.872000000    -1.792000000    -4.619000000
O     6.124000000    -3.718000000     1.788000000
H     7.045000000    -3.458000000     1.745000000
H     5.647000000    -2.893000000     1.875000000
O     1.236000000     3.156000000    -3.799000000
H     0.605000000     3.293000000    -3.092000000
H     0.919000000     2.376000000    -4.255000000
O    -2.810000000    -5.006000000    -0.666000000
H    -2.339000000    -4.227000000    -0.961000000
H    -2.138000000    -5.553000000    -0.260000000
O    -0.029000000     3.530000000     3.893000000
H    -0.567000000     4.125000000     3.370000000
H     0.747000000     4.044000000     4.117000000
O    -3.552000000    -4.913000000     2.220000000
H    -3.307000000    -4.630000000     1.339000000
H    -3.615000000    -5.866000000     2.156000000
O    -3.581000000     2.864000000     5.171000000
H    -3.210000000     3.661000000     5.549000000
H    -2.912000000     2.195000000     5.316000000
O    -3.775000000    -0.519000000    -4.222000000
H    -4.611000000    -0.982000000    -4.290000000
H    -3.746000000    -0.210000000    -3.316000000
O     0.504000000     1.591000000    -6.741000000
H    -0.040000000     2.347000000    -6.522000000
H    -0.066000000     1.029000000    -7.265000000
O    -0.295000000     5.745000000     1.898000000
H    -0.327000000     5.013000000     1.282000000
H    -1.093000000     6.242000000     1.721000000
O     3.132000000     5.058000000     3.045000000
H     2.620000000     5.857000000     2.921000000
H     2.860000000     4.486000000     2.327000000
O     1.142000000    -1.067000000    -5.689000000
H     1.075000000    -0.112000000    -5.692000000
H     0.359000000    -1.361000000    -5.224000000
O    -4.593000000     2.707000000    -2.510000000
H    -4.201000000     3.580000000    -2.496000000
H    -4.227000000     2.268000000    -1.741000000
O    -4.422000000    -2.131000000     1.442000000
H    -4.319000000    -2.831000000     2.086000000
H    -3.940000000    -1.392000000     1.813000000
O    -2.769000000     2.244000000    -6.413000000
H    -2.209000000     1.998000000    -5.677000000
H    -3.213000000     3.040000000    -6.121000000
O     3.022000000     1.097000000     3.431000000
H     3.356000000     1.244000000     4.316000000
H     2.408000000     0.369000000     3.525000000
