161
-3043.43889
C    -0.032000000    -1.457000000    -0.043000000
H     0.066000000    -2.539000000     0.000000000
C     1.091000000    -0.726000000     0.262000000
H     2.085000000    -1.138000000     0.422000000
C     1.043000000     0.651000000     0.125000000
C     2.278000000     1.501000000     0.403000000
H     2.213000000     2.456000000    -0.121000000
H     2.323000000     1.864000000     1.432000000
H     3.157000000     0.881000000     0.213000000
C    -0.226000000     1.252000000    -0.134000000
H    -0.342000000     2.330000000    -0.219000000
C    -1.378000000     0.511000000    -0.200000000
H    -2.335000000     0.999000000    -0.364000000
C    -1.298000000    -0.862000000    -0.180000000
C    -2.531000000    -1.711000000    -0.468000000
O    -3.609000000    -1.125000000    -0.605000000
O    -2.500000000    -2.885000000    -0.525000000
O     2.517000000    -6.344000000     1.439000000
H     2.242000000    -5.483000000     1.751000000
H     2.635000000    -6.231000000     0.496000000
O     6.325000000    -0.968000000    -0.183000000
H     7.007000000    -1.585000000    -0.449000000
H     6.754000000    -0.113000000    -0.201000000
O    -7.108000000    -1.865000000    -2.124000000
H    -6.384000000    -2.471000000    -1.966000000
H    -7.717000000    -2.026000000    -1.403000000
O    -5.113000000    -3.475000000    -1.012000000
H    -4.179000000    -3.278000000    -1.082000000
H    -5.281000000    -3.505000000    -0.070000000
O    -6.015000000     3.004000000    -2.519000000
H    -6.854000000     3.220000000    -2.113000000
H    -5.900000000     2.069000000    -2.350000000
O     3.594000000    -3.639000000    -0.687000000
H     3.493000000    -3.224000000    -1.543000000
H     3.049000000    -4.425000000    -0.737000000
O     0.359000000     2.131000000    -3.703000000
H     0.922000000     1.375000000    -3.539000000
H     0.889000000     2.709000000    -4.252000000
O    -0.335000000     0.694000000     3.262000000
H    -1.239000000     0.580000000     3.556000000
H    -0.353000000     1.496000000     2.740000000
O    -0.420000000    -1.992000000    -5.427000000
H     0.354000000    -2.555000000    -5.432000000
H    -0.873000000    -2.216000000    -4.614000000
O     0.935000000    -3.738000000    -2.464000000
H     1.098000000    -4.275000000    -1.688000000
H    -0.018000000    -3.724000000    -2.549000000
O    -3.359000000     3.322000000     1.320000000
H    -3.990000000     3.866000000     1.792000000
H    -2.854000000     3.941000000     0.794000000
O    -4.988000000    -1.969000000    -5.155000000
H    -4.439000000    -1.415000000    -4.600000000
H    -4.549000000    -1.965000000    -6.005000000
O     5.289000000     4.366000000     1.593000000
H     4.370000000     4.632000000     1.584000000
H     5.432000000     4.030000000     2.478000000
O     2.351000000     4.903000000     2.204000000
H     1.396000000     4.867000000     2.248000000
H     2.622000000     5.160000000     3.085000000
O    -0.723000000    -2.255000000     2.857000000
H    -0.677000000    -1.466000000     2.318000000
H     0.137000000    -2.664000000     2.756000000
O     4.802000000    -1.416000000    -4.200000000
H     4.119000000    -1.656000000    -3.573000000
H     5.504000000    -1.053000000    -3.661000000
O     0.308000000     6.494000000    -3.213000000
H     0.206000000     5.700000000    -2.689000000
H    -0.566000000     6.883000000    -3.232000000
O     7.351000000     1.450000000     0.070000000
H     7.439000000     1.723000000     0.983000000
H     8.167000000     1.730000000    -0.344000000
O     2.006000000     2.179000000     5.846000000
H     2.918000000     2.019000000     5.601000000
H     1.998000000     2.108000000     6.801000000
O     2.343000000    -1.126000000     3.022000000
H     1.815000000    -0.677000000     2.363000000
H     2.057000000    -0.750000000     3.855000000
O    -0.935000000     4.260000000    -2.250000000
H    -0.560000000     3.409000000    -2.477000000
H    -1.866000000     4.083000000    -2.114000000
O    -3.429000000     3.512000000    -1.375000000
H    -3.725000000     3.119000000    -0.554000000
H    -4.205000000     3.507000000    -1.936000000
O    -6.803000000    -5.856000000    -0.425000000
H    -6.362000000    -5.076000000    -0.089000000
H    -6.264000000    -6.136000000    -1.165000000
O     1.941000000     5.203000000    -0.744000000
H     2.222000000     6.112000000    -0.844000000
H     2.189000000     4.972000000     0.151000000
O     5.910000000    -0.461000000     3.523000000
H     5.711000000    -0.744000000     2.631000000
H     5.965000000    -1.274000000     4.026000000
O     4.236000000    -2.985000000     2.198000000
H     3.670000000    -2.309000000     2.573000000
H     3.917000000    -3.093000000     1.302000000
O    -2.124000000    -3.038000000    -3.024000000
H    -2.445000000    -2.183000000    -3.312000000
H    -2.421000000    -3.111000000    -2.116000000
O    -0.996000000     4.942000000     0.538000000
H    -1.083000000     5.881000000     0.373000000
H    -1.009000000     4.544000000    -0.333000000
O    -5.421000000     0.431000000    -2.025000000
H    -4.981000000    -0.067000000    -1.337000000
H    -6.091000000    -0.164000000    -2.361000000
O    -4.163000000    -4.407000000     3.264000000
H    -4.041000000    -3.516000000     3.589000000
H    -3.776000000    -4.964000000     3.940000000
O    -5.116000000    -4.523000000    -4.312000000
H    -5.417000000    -3.687000000    -4.667000000
H    -5.042000000    -4.370000000    -3.369000000
O    -3.149000000    -0.529000000    -3.633000000
H    -3.762000000    -0.467000000    -2.901000000
H    -3.256000000     0.297000000    -4.106000000
O    -2.908000000    -5.804000000    -4.897000000
H    -3.745000000    -5.355000000    -4.780000000
H    -2.433000000    -5.642000000    -4.083000000
O    -3.566000000    -1.917000000     3.768000000
H    -3.397000000    -0.980000000     3.674000000
H    -2.911000000    -2.335000000     3.208000000
O    -5.798000000    -0.891000000     1.122000000
H    -4.995000000    -0.974000000     0.608000000
H    -6.004000000    -1.787000000     1.391000000
O     2.779000000    -1.766000000    -2.453000000
H     2.148000000    -2.475000000    -2.579000000
H     2.240000000    -0.989000000    -2.304000000
O    -3.247000000     0.870000000     3.205000000
H    -3.324000000     1.523000000     2.509000000
H    -4.143000000     0.563000000     3.346000000
O    -2.060000000    -5.426000000    -0.769000000
H    -2.004000000    -4.476000000    -0.664000000
H    -2.836000000    -5.677000000    -0.267000000
O    -2.129000000     1.960000000    -4.950000000
H    -1.955000000     2.792000000    -5.391000000
H    -1.404000000     1.859000000    -4.334000000
O    -0.902000000    -7.004000000     1.052000000
H     0.033000000    -7.186000000     0.956000000
H    -1.068000000    -6.283000000     0.444000000
O     1.826000000    -4.256000000     3.122000000
H     2.531000000    -3.618000000     3.233000000
H     1.461000000    -4.365000000     4.001000000
O    -0.623000000     4.227000000     3.062000000
H    -0.655000000     4.317000000     2.109000000
H    -1.182000000     4.931000000     3.389000000
O    -6.147000000    -3.631000000     1.641000000
H    -6.809000000    -4.201000000     2.033000000
H    -5.390000000    -3.710000000     2.221000000
O    -7.375000000     1.606000000     1.659000000
H    -8.236000000     1.596000000     1.242000000
H    -6.974000000     0.776000000     1.402000000
O     5.530000000     3.005000000    -3.977000000
H     5.344000000     2.925000000    -3.042000000
H     4.746000000     2.663000000    -4.407000000
O    -4.069000000    -5.857000000     0.958000000
H    -4.279000000    -5.251000000     1.668000000
H    -4.834000000    -6.430000000     0.898000000
O     5.017000000     2.674000000    -1.176000000
H     5.693000000     2.127000000    -0.777000000
H     4.921000000     3.412000000    -0.574000000
O    -2.220000000    -7.561000000    -2.607000000
H    -3.165000000    -7.481000000    -2.733000000
H    -2.057000000    -7.156000000    -1.755000000
