161
-3085.95913
C     1.338000000    -0.425000000    -0.460000000
H     2.232000000    -0.965000000    -0.760000000
C     0.280000000    -1.212000000     0.030000000
H     0.341000000    -2.276000000    -0.185000000
C    -0.887000000    -0.664000000     0.500000000
C    -2.068000000    -1.663000000     0.784000000
H    -1.782000000    -2.399000000     1.538000000
H    -3.015000000    -1.150000000     0.965000000
H    -2.168000000    -2.129000000    -0.199000000
C    -1.067000000     0.665000000     0.498000000
H    -1.997000000     1.095000000     0.859000000
C     0.013000000     1.487000000     0.082000000
H    -0.176000000     2.557000000     0.116000000
C     1.223000000     0.935000000    -0.386000000
C     2.308000000     1.834000000    -0.951000000
O     1.927000000     2.875000000    -1.480000000
O     3.492000000     1.440000000    -0.956000000
O     2.463000000     2.655000000     3.479000000
H     2.006000000     3.496000000     3.474000000
H     1.810000000     2.029000000     3.793000000
O    -3.246000000    -5.014000000     5.380000000
H    -3.886000000    -5.720000000     5.465000000
H    -3.475000000    -4.581000000     4.558000000
O     1.611000000     6.390000000    -2.974000000
H     2.123000000     5.711000000    -2.534000000
H     0.968000000     6.666000000    -2.322000000
O     1.063000000    -6.070000000     0.671000000
H     1.279000000    -5.280000000     0.176000000
H     1.892000000    -6.341000000     1.064000000
O     2.488000000    -6.204000000    -2.279000000
H     2.433000000    -5.708000000    -1.462000000
H     2.219000000    -7.091000000    -2.040000000
O     6.478000000     3.476000000    -3.476000000
H     6.209000000     4.215000000    -2.929000000
H     7.194000000     3.822000000    -4.010000000
O    -3.113000000     3.638000000    -0.310000000
H    -3.515000000     3.239000000    -1.081000000
H    -3.844000000     4.032000000     0.165000000
O    -1.100000000    -3.045000000    -3.017000000
H    -1.108000000    -2.178000000    -2.611000000
H    -0.573000000    -2.934000000    -3.808000000
O     4.085000000    -0.853000000     1.114000000
H     4.361000000    -0.303000000     1.847000000
H     3.531000000    -0.282000000     0.581000000
O    -2.019000000    -0.723000000     4.021000000
H    -2.739000000    -0.146000000     3.766000000
H    -1.898000000    -0.556000000     4.956000000
O    -0.973000000     5.690000000    -0.634000000
H    -1.928000000     5.625000000    -0.636000000
H    -0.795000000     6.607000000    -0.843000000
O     6.224000000     5.814000000    -2.415000000
H     6.111000000     6.731000000    -2.663000000
H     5.355000000     5.535000000    -2.127000000
O    -1.749000000    -5.385000000    -2.286000000
H    -1.231000000    -5.854000000    -2.939000000
H    -1.417000000    -4.487000000    -2.316000000
O     6.034000000     0.078000000    -0.981000000
H     5.565000000     0.851000000    -1.296000000
H     5.370000000    -0.430000000    -0.514000000
O    -3.344000000     2.996000000     2.256000000
H    -4.011000000     2.338000000     2.058000000
H    -2.919000000     3.165000000     1.415000000
O    -0.598000000     3.589000000    -2.395000000
H    -0.761000000     4.303000000    -1.779000000
H     0.258000000     3.244000000    -2.141000000
O     1.782000000    -3.858000000    -4.290000000
H     2.068000000    -4.243000000    -3.461000000
H     1.680000000    -2.926000000    -4.098000000
O    -7.759000000    -3.264000000     1.301000000
H    -7.733000000    -4.125000000     0.885000000
H    -6.892000000    -2.892000000     1.138000000
O    -0.493000000    -4.380000000     2.241000000
H    -0.664000000    -4.653000000     3.143000000
H     0.027000000    -5.092000000     1.869000000
O     1.091000000    -1.128000000    -3.899000000
H     1.940000000    -0.800000000    -3.602000000
H     1.159000000    -1.138000000    -4.854000000
O     2.919000000     2.195000000    -4.258000000
H     3.826000000     1.917000000    -4.134000000
H     2.653000000     2.537000000    -3.405000000
O    -4.409000000    -0.334000000    -0.806000000
H    -5.093000000     0.287000000    -0.556000000
H    -4.143000000    -0.057000000    -1.683000000
O    -2.926000000    -5.019000000     0.308000000
H    -2.425000000    -5.079000000    -0.506000000
H    -2.359000000    -4.529000000     0.903000000
O    -5.018000000    -2.821000000     0.760000000
H    -4.698000000    -2.052000000     0.289000000
H    -4.395000000    -3.514000000     0.539000000
O     3.746000000    -0.412000000    -3.136000000
H     4.327000000     0.017000000    -3.764000000
H     3.728000000     0.180000000    -2.384000000
O     0.279000000     4.835000000     1.636000000
H    -0.132000000     5.026000000     0.793000000
H    -0.386000000     5.066000000     2.285000000
O    -4.237000000    -3.145000000     3.417000000
H    -3.590000000    -2.481000000     3.657000000
H    -4.650000000    -2.801000000     2.625000000
O     1.037000000    -2.324000000     3.114000000
H     0.287000000    -2.720000000     2.670000000
H     1.091000000    -1.440000000     2.752000000
O     0.570000000     1.346000000    -5.509000000
H     1.318000000     1.894000000    -5.270000000
H     0.354000000     0.871000000    -4.707000000
O     8.376000000     1.326000000    -2.046000000
H     8.037000000     2.172000000    -2.339000000
H     7.645000000     0.927000000    -1.573000000
O    -5.419000000     2.984000000    -2.313000000
H    -5.063000000     2.098000000    -2.239000000
H    -5.571000000     3.103000000    -3.251000000
O    -0.587000000     4.469000000    -5.451000000
H    -1.349000000     4.897000000    -5.843000000
H    -0.865000000     4.254000000    -4.561000000
O    -1.791000000     3.969000000     4.171000000
H    -1.638000000     3.286000000     4.825000000
H    -2.433000000     3.588000000     3.572000000
O     4.416000000    -2.785000000    -1.777000000
H     5.261000000    -3.140000000    -2.054000000
H     4.259000000    -2.049000000    -2.369000000
O    -4.188000000    -2.320000000    -3.733000000
H    -3.994000000    -3.255000000    -3.677000000
H    -3.331000000    -1.902000000    -3.823000000
O     7.751000000     1.894000000     1.113000000
H     8.292000000     2.292000000     0.431000000
H     6.854000000     1.986000000     0.791000000
O     3.204000000     4.939000000     1.377000000
H     2.249000000     4.873000000     1.384000000
H     3.392000000     5.743000000     1.860000000
O     5.645000000     1.101000000    -4.472000000
H     5.890000000     2.024000000    -4.407000000
H     6.429000000     0.667000000    -4.808000000
O     3.594000000     4.973000000    -1.252000000
H     3.187000000     4.108000000    -1.298000000
H     3.594000000     5.189000000    -0.320000000
O     3.358000000    -3.360000000     2.087000000
H     2.639000000    -3.506000000     2.702000000
H     3.558000000    -2.428000000     2.168000000
O     4.940000000     2.680000000     0.662000000
H     4.461000000     2.192000000    -0.007000000
H     4.273000000     3.215000000     1.092000000
O    -5.247000000     0.875000000     2.073000000
H    -5.860000000     0.332000000     1.576000000
H    -5.344000000     0.579000000     2.978000000
O     1.859000000     3.964000000    -6.327000000
H     2.458000000     3.620000000    -5.664000000
H     1.042000000     4.119000000    -5.854000000
O    -1.032000000    -0.258000000    -2.672000000
H    -0.149000000    -0.543000000    -2.907000000
H    -0.908000000     0.288000000    -1.896000000
O     2.534000000    -4.162000000    -0.464000000
H     2.480000000    -3.548000000     0.269000000
H     3.222000000    -3.804000000    -1.025000000
O    -3.561000000     1.095000000    -2.967000000
H    -3.655000000     0.979000000    -3.912000000
H    -2.632000000     1.285000000    -2.840000000
O     0.264000000     0.568000000     3.280000000
H    -0.013000000     0.862000000     2.412000000
H    -0.479000000     0.062000000     3.609000000
O     4.463000000     0.846000000     3.180000000
H     3.796000000     1.533000000     3.197000000
H     5.239000000     1.257000000     3.561000000
