161
-3040.33889
C     0.478000000    -0.936000000    -0.996000000
H     0.772000000    -1.783000000    -1.610000000
C    -0.156000000    -1.290000000     0.208000000
H    -0.183000000    -2.365000000     0.369000000
C    -0.664000000    -0.284000000     1.041000000
C    -1.382000000    -0.606000000     2.281000000
H    -1.281000000     0.159000000     3.054000000
H    -2.437000000    -0.827000000     2.103000000
H    -0.877000000    -1.437000000     2.777000000
C    -0.458000000     1.058000000     0.642000000
H    -0.841000000     1.849000000     1.282000000
C     0.344000000     1.385000000    -0.510000000
H     0.585000000     2.440000000    -0.613000000
C     0.751000000     0.387000000    -1.365000000
C     1.549000000     0.696000000    -2.560000000
O     1.792000000     1.834000000    -2.890000000
O     2.005000000    -0.279000000    -3.209000000
O     0.662000000     5.871000000    -5.944000000
H     0.385000000     5.408000000    -5.154000000
H     1.189000000     5.233000000    -6.425000000
O    -1.303000000    -2.799000000     5.500000000
H    -1.564000000    -3.126000000     4.639000000
H    -2.044000000    -2.267000000     5.789000000
O     1.480000000    -4.875000000     3.641000000
H     0.619000000    -5.293000000     3.673000000
H     2.063000000    -5.554000000     3.303000000
O     4.474000000     3.513000000    -5.041000000
H     5.284000000     3.215000000    -5.453000000
H     4.345000000     4.399000000    -5.378000000
O     1.180000000    -4.219000000    -3.304000000
H     1.183000000    -4.524000000    -4.211000000
H     0.304000000    -4.431000000    -2.983000000
O     3.257000000     0.936000000    -8.334000000
H     2.478000000     0.730000000    -8.852000000
H     2.938000000     0.988000000    -7.433000000
O     0.213000000     5.664000000     4.677000000
H    -0.202000000     6.397000000     5.132000000
H    -0.515000000     5.096000000     4.423000000
O    -4.214000000     3.534000000     1.041000000
H    -4.781000000     2.794000000     0.824000000
H    -4.315000000     3.644000000     1.986000000
O    -1.202000000    -4.851000000    -2.368000000
H    -1.224000000    -3.894000000    -2.403000000
H    -1.721000000    -5.074000000    -1.595000000
O     0.473000000    -4.352000000     7.262000000
H     0.406000000    -3.834000000     6.460000000
H     1.411000000    -4.516000000     7.363000000
O    -3.384000000    -1.580000000     6.842000000
H    -3.013000000    -1.580000000     7.724000000
H    -3.670000000    -0.677000000     6.702000000
O     2.339000000     7.085000000    -0.742000000
H     1.692000000     6.429000000    -0.483000000
H     2.494000000     7.595000000     0.053000000
O    -4.183000000    -3.564000000     5.092000000
H    -4.143000000    -2.927000000     5.806000000
H    -4.434000000    -4.384000000     5.517000000
O    -2.723000000    -4.386000000     0.963000000
H    -2.635000000    -3.495000000     0.626000000
H    -2.428000000    -4.329000000     1.871000000
O     1.852000000    -2.251000000     3.222000000
H     1.674000000    -2.222000000     2.282000000
H     1.796000000    -3.180000000     3.447000000
O     2.908000000    -1.803000000    -5.147000000
H     2.681000000    -1.373000000    -4.322000000
H     2.921000000    -2.736000000    -4.935000000
O    -0.948000000     6.526000000     2.177000000
H    -0.128000000     6.757000000     2.614000000
H    -0.785000000     5.659000000     1.806000000
O    -1.729000000    -2.150000000    -3.050000000
H    -2.292000000    -1.603000000    -3.596000000
H    -0.840000000    -1.855000000    -3.250000000
O     0.430000000     5.210000000    -0.192000000
H     0.774000000     4.636000000     0.493000000
H    -0.465000000     4.902000000    -0.335000000
O    -2.083000000    -4.602000000     3.582000000
H    -2.856000000    -4.400000000     4.109000000
H    -1.749000000    -5.421000000     3.949000000
O    -1.373000000     2.624000000    -2.978000000
H    -0.515000000     3.038000000    -3.072000000
H    -1.466000000     2.477000000    -2.037000000
O    -6.345000000    -0.749000000     2.652000000
H    -5.730000000    -0.241000000     3.181000000
H    -7.153000000    -0.757000000     3.164000000
O     2.552000000     1.696000000    -5.609000000
H     3.113000000     2.442000000    -5.397000000
H     2.345000000     1.304000000    -4.761000000
O     1.638000000     3.911000000     1.767000000
H     2.073000000     4.475000000     2.407000000
H     2.351000000     3.565000000     1.230000000
O    -4.572000000     0.726000000     4.257000000
H    -3.690000000     0.691000000     3.888000000
H    -4.446000000     0.579000000     5.194000000
O     3.976000000     0.448000000     3.684000000
H     4.085000000     1.068000000     4.404000000
H     3.037000000     0.455000000     3.500000000
O     5.950000000    -1.309000000    -4.550000000
H     5.725000000    -0.447000000    -4.900000000
H     5.122000000    -1.790000000    -4.548000000
O     0.414000000    -1.052000000    -5.539000000
H     1.194000000    -1.537000000    -5.809000000
H     0.707000000    -0.523000000    -4.797000000
O     4.501000000     0.667000000     0.971000000
H     4.168000000     0.361000000     1.815000000
H     5.436000000     0.808000000     1.120000000
O    -3.147000000    -0.309000000    -4.414000000
H    -3.106000000     0.458000000    -4.986000000
H    -3.168000000     0.053000000    -3.528000000
O    -0.508000000     2.582000000     5.120000000
H     0.247000000     2.681000000     5.700000000
H    -0.498000000     1.658000000     4.869000000
O    -5.625000000    -3.466000000    -0.513000000
H    -5.411000000    -3.580000000     0.413000000
H    -5.085000000    -2.728000000    -0.795000000
O    -3.711000000     1.281000000     6.878000000
H    -4.456000000     1.248000000     7.478000000
H    -3.117000000     1.921000000     7.269000000
O     3.394000000     2.789000000    -0.076000000
H     3.819000000     2.025000000     0.314000000
H     3.511000000     2.672000000    -1.019000000
O    -1.352000000     0.014000000    -7.206000000
H    -0.678000000    -0.293000000    -6.599000000
H    -0.868000000     0.496000000    -7.877000000
O     0.812000000     4.443000000    -3.100000000
H     1.375000000     3.710000000    -2.848000000
H     0.731000000     4.967000000    -2.303000000
O     4.035000000    -1.283000000    -1.406000000
H     3.255000000    -1.086000000    -1.924000000
H     4.309000000    -0.436000000    -1.053000000
O     4.585000000     2.077000000    -2.460000000
H     5.010000000     2.525000000    -3.191000000
H     3.709000000     1.867000000    -2.785000000
O    -4.806000000     0.138000000    -1.483000000
H    -5.534000000    -0.275000000    -1.947000000
H    -5.215000000     0.825000000    -0.957000000
O    -2.702000000     3.717000000     4.170000000
H    -3.344000000     3.439000000     4.824000000
H    -1.881000000     3.318000000     4.457000000
O    -5.130000000    -3.347000000     2.469000000
H    -5.624000000    -2.535000000     2.353000000
H    -4.689000000    -3.240000000     3.312000000
O     0.452000000     3.120000000    -7.219000000
H     0.669000000     2.675000000    -6.400000000
H    -0.455000000     3.403000000    -7.106000000
O    -3.321000000    -1.857000000    -0.588000000
H    -3.445000000    -0.913000000    -0.495000000
H    -3.014000000    -1.971000000    -1.488000000
O    -6.240000000     1.548000000     0.510000000
H    -6.557000000     2.050000000     1.261000000
H    -6.281000000     0.636000000     0.798000000
O     4.047000000    -3.821000000    -2.625000000
H     3.121000000    -4.064000000    -2.611000000
H     4.099000000    -3.045000000    -2.068000000
O    -1.961000000     4.483000000    -0.631000000
H    -2.699000000     4.065000000    -0.187000000
H    -2.355000000     4.933000000    -1.379000000
O    -0.194000000    -0.122000000     5.553000000
H     0.465000000    -0.166000000     6.246000000
H    -0.488000000    -1.027000000     5.444000000
O    -2.889000000    -6.692000000    -0.476000000
H    -2.741000000    -5.974000000     0.139000000
H    -2.237000000    -7.350000000    -0.237000000
