161
-3035.62089
C     1.192000000    -0.539000000     0.743000000
H     2.011000000    -1.101000000     1.185000000
C    -0.170000000    -0.983000000     0.899000000
H    -0.454000000    -1.875000000     1.453000000
C    -1.184000000    -0.356000000     0.166000000
C    -2.636000000    -0.806000000     0.244000000
H    -3.359000000    -0.056000000     0.571000000
H    -3.026000000    -1.083000000    -0.738000000
H    -2.670000000    -1.691000000     0.883000000
C    -0.804000000     0.598000000    -0.769000000
H    -1.545000000     1.037000000    -1.432000000
C     0.530000000     1.084000000    -0.907000000
H     0.640000000     1.756000000    -1.754000000
C     1.516000000     0.511000000    -0.045000000
C     2.954000000     0.986000000    -0.154000000
O     3.157000000     1.934000000    -0.925000000
O     3.849000000     0.578000000     0.578000000
O     2.405000000     4.623000000    -5.355000000
H     3.063000000     4.876000000    -4.708000000
H     1.569000000     4.835000000    -4.941000000
O     0.498000000    -4.046000000    -3.465000000
H     1.076000000    -4.062000000    -4.228000000
H     0.709000000    -3.225000000    -3.021000000
O     3.946000000     6.081000000    -3.408000000
H     3.937000000     5.791000000    -2.496000000
H     3.545000000     6.950000000    -3.388000000
O    -2.814000000     3.418000000    -3.357000000
H    -3.342000000     2.635000000    -3.511000000
H    -3.421000000     4.041000000    -2.956000000
O    -5.676000000     2.232000000    -1.068000000
H    -5.330000000     3.005000000    -1.514000000
H    -6.617000000     2.396000000    -1.001000000
O     4.415000000    -1.977000000     1.082000000
H     4.045000000    -1.095000000     1.126000000
H     5.354000000    -1.850000000     1.216000000
O    -1.608000000    -1.879000000     4.052000000
H    -1.077000000    -1.917000000     4.848000000
H    -1.489000000    -2.737000000     3.644000000
O     6.555000000     0.898000000     3.996000000
H     6.218000000     1.735000000     4.316000000
H     7.390000000     0.787000000     4.452000000
O    -4.418000000    -5.225000000     0.001000000
H    -3.674000000    -4.983000000    -0.550000000
H    -4.793000000    -5.995000000    -0.426000000
O     4.827000000     6.009000000    -0.672000000
H     3.919000000     5.730000000    -0.558000000
H     4.874000000     6.858000000    -0.234000000
O     4.986000000    -0.841000000    -4.096000000
H     5.857000000    -1.219000000    -3.975000000
H     4.742000000    -1.081000000    -4.990000000
O    -3.729000000    -2.184000000    -3.767000000
H    -4.370000000    -2.834000000    -4.056000000
H    -4.109000000    -1.343000000    -4.022000000
O    -1.710000000    -4.546000000     0.765000000
H    -0.877000000    -5.014000000     0.823000000
H    -2.080000000    -4.606000000     1.645000000
O     5.299000000     3.444000000    -2.055000000
H     4.598000000     3.010000000    -1.570000000
H     5.443000000     4.266000000    -1.584000000
O    -0.667000000     1.088000000     4.374000000
H    -1.019000000     1.131000000     5.263000000
H    -1.367000000     0.686000000     3.859000000
O    -4.406000000     2.326000000     1.476000000
H    -4.650000000     2.016000000     0.604000000
H    -4.204000000     1.529000000     1.966000000
O     0.517000000     1.330000000    -5.049000000
H     0.276000000     2.256000000    -5.075000000
H     1.291000000     1.300000000    -4.486000000
O    -1.049000000     4.302000000    -1.173000000
H    -0.992000000     3.836000000    -0.339000000
H    -1.368000000     3.646000000    -1.792000000
O    -3.798000000     1.387000000    -5.039000000
H    -2.903000000     1.452000000    -5.372000000
H    -4.087000000     0.512000000    -5.297000000
O     6.892000000    -1.094000000     2.153000000
H     7.638000000    -0.746000000     1.664000000
H     6.620000000    -0.373000000     2.721000000
O    -7.847000000     1.169000000     2.684000000
H    -8.485000000     0.672000000     3.197000000
H    -7.165000000     0.533000000     2.468000000
O    -2.390000000    -4.770000000     3.554000000
H    -2.307000000    -5.707000000     3.732000000
H    -2.864000000    -4.424000000     4.310000000
O    -2.619000000    -3.797000000    -1.842000000
H    -1.983000000    -3.518000000    -1.184000000
H    -2.950000000    -2.981000000    -2.218000000
O     2.602000000     1.049000000    -3.344000000
H     3.389000000     0.621000000    -3.680000000
H     2.903000000     1.535000000    -2.576000000
O    -6.228000000    -0.510000000    -1.176000000
H    -5.897000000     0.365000000    -1.380000000
H    -6.921000000    -0.660000000    -1.819000000
O     3.817000000    -2.428000000    -1.619000000
H     4.664000000    -2.132000000    -1.954000000
H     3.925000000    -2.434000000    -0.668000000
O     6.610000000    -2.444000000    -0.780000000
H     6.034000000    -3.189000000    -0.610000000
H     7.490000000    -2.776000000    -0.602000000
O    -5.912000000    -0.545000000     1.722000000
H    -4.975000000    -0.694000000     1.852000000
H    -6.008000000    -0.431000000     0.776000000
O     1.566000000    -0.655000000     4.373000000
H     1.001000000    -0.056000000     3.885000000
H     2.446000000    -0.292000000     4.271000000
O     4.573000000     2.802000000     4.961000000
H     4.162000000     2.705000000     5.820000000
H     3.990000000     2.335000000     4.363000000
O    -0.484000000     4.111000000    -4.883000000
H    -0.354000000     5.032000000    -4.655000000
H    -1.369000000     3.912000000    -4.579000000
O     0.785000000    -1.338000000    -6.078000000
H     0.576000000    -0.463000000    -5.749000000
H     1.664000000    -1.516000000    -5.744000000
O     6.716000000     0.547000000    -1.808000000
H     6.542000000     1.175000000    -1.107000000
H     6.960000000    -0.258000000    -1.352000000
O    -6.275000000     3.210000000     3.226000000
H    -5.512000000     2.807000000     2.813000000
H    -6.981000000     2.576000000     3.098000000
O     1.325000000     2.623000000     4.475000000
H     0.576000000     2.077000000     4.237000000
H     1.920000000     2.553000000     3.728000000
O     6.347000000     1.953000000     0.745000000
H     5.866000000     2.577000000     1.289000000
H     5.731000000     1.234000000     0.604000000
O     5.557000000     1.981000000    -4.425000000
H     5.533000000     2.497000000    -3.619000000
H     5.693000000     1.080000000    -4.128000000
O     2.490000000     4.634000000    -0.701000000
H     2.496000000     3.685000000    -0.831000000
H     1.577000000     4.841000000    -0.498000000
O     2.835000000    -4.006000000     2.052000000
H     2.658000000    -3.369000000     2.743000000
H     3.474000000    -3.573000000     1.485000000
O     4.901000000     4.033000000     2.198000000
H     4.949000000     4.213000000     3.137000000
H     4.092000000     4.459000000     1.914000000
O    -4.170000000     4.964000000     0.644000000
H    -4.297000000     4.051000000     0.902000000
H    -4.163000000     5.448000000     1.470000000
O    -6.155000000    -3.383000000     1.863000000
H    -5.201000000    -3.429000000     1.805000000
H    -6.362000000    -2.463000000     1.699000000
O    -3.691000000     0.112000000     3.405000000
H    -3.046000000    -0.596000000     3.424000000
H    -4.080000000     0.106000000     4.279000000
O     1.069000000    -1.479000000    -2.700000000
H     1.969000000    -1.644000000    -2.417000000
H     0.857000000    -0.619000000    -2.338000000
O     1.540000000    -4.123000000     5.077000000
H     2.425000000    -3.842000000     4.846000000
H     1.182000000    -3.393000000     5.583000000
O     0.810000000    -6.015000000     1.092000000
H     1.533000000    -5.472000000     1.408000000
H     0.797000000    -6.766000000     1.684000000
O    -1.530000000     3.110000000     1.630000000
H    -1.340000000     2.393000000     2.235000000
H    -2.480000000     3.218000000     1.679000000
O     3.718000000     0.962000000     3.057000000
H     3.614000000     1.093000000     2.114000000
H     4.652000000     0.785000000     3.172000000
