161
-3048.92515
C     0.782000000    -1.134000000     0.494000000
H     1.346000000    -2.017000000     0.781000000
C    -0.428000000    -1.217000000    -0.153000000
H    -0.821000000    -2.210000000    -0.356000000
C    -1.123000000    -0.054000000    -0.415000000
C    -2.462000000    -0.190000000    -1.148000000
H    -3.285000000    -0.106000000    -0.435000000
H    -2.551000000     0.562000000    -1.935000000
H    -2.725000000    -1.181000000    -1.524000000
C    -0.555000000     1.190000000    -0.232000000
H    -1.109000000     2.084000000    -0.507000000
C     0.751000000     1.287000000     0.323000000
H     1.233000000     2.260000000     0.372000000
C     1.406000000     0.107000000     0.694000000
C     2.808000000     0.177000000     1.219000000
O     3.434000000     1.246000000     1.057000000
O     3.307000000    -0.800000000     1.762000000
O     2.559000000     5.498000000     4.331000000
H     2.807000000     4.619000000     4.045000000
H     3.158000000     6.080000000     3.864000000
O     0.522000000     2.175000000    -3.167000000
H     0.757000000     1.388000000    -2.675000000
H     0.921000000     2.047000000    -4.027000000
O     2.596000000    -0.651000000     4.305000000
H     3.396000000    -0.388000000     4.761000000
H     2.872000000    -0.796000000     3.400000000
O    -4.117000000    -0.125000000    -3.659000000
H    -3.993000000    -0.811000000    -4.315000000
H    -3.367000000     0.458000000    -3.777000000
O    -5.971000000     1.509000000    -2.017000000
H    -5.714000000     0.736000000    -2.520000000
H    -6.082000000     1.186000000    -1.122000000
O    -3.810000000    -5.632000000    -4.467000000
H    -2.974000000    -5.783000000    -4.907000000
H    -3.769000000    -4.719000000    -4.182000000
O     8.307000000    -1.522000000     1.351000000
H     7.523000000    -1.994000000     1.632000000
H     8.331000000    -1.641000000     0.402000000
O    -2.179000000    -6.292000000    -1.792000000
H    -1.356000000    -6.514000000    -2.228000000
H    -2.839000000    -6.815000000    -2.247000000
O     5.709000000    -2.224000000     2.088000000
H     4.810000000    -1.972000000     1.878000000
H     5.616000000    -2.966000000     2.685000000
O    -1.417000000     4.887000000    -4.130000000
H    -1.567000000     5.771000000    -3.795000000
H    -1.446000000     4.328000000    -3.354000000
O     0.528000000    -1.851000000    -3.049000000
H     1.177000000    -1.430000000    -2.485000000
H    -0.172000000    -2.115000000    -2.452000000
O     0.098000000    -2.179000000     3.902000000
H    -0.455000000    -1.750000000     3.249000000
H     0.823000000    -1.570000000     4.040000000
O     5.502000000    -1.028000000    -2.308000000
H     4.910000000    -1.470000000    -1.701000000
H     6.318000000    -1.525000000    -2.253000000
O     0.427000000    -6.795000000    -1.998000000
H     0.882000000    -5.991000000    -2.250000000
H     0.333000000    -7.284000000    -2.815000000
O    -3.922000000    -1.850000000     3.540000000
H    -3.779000000    -1.066000000     3.010000000
H    -4.711000000    -1.657000000     4.046000000
O     3.285000000     2.712000000    -1.094000000
H     3.439000000     2.290000000    -0.248000000
H     3.137000000     1.987000000    -1.700000000
O    -4.314000000     1.250000000     2.326000000
H    -3.374000000     1.139000000     2.472000000
H    -4.487000000     2.160000000     2.567000000
O    -4.587000000     3.631000000    -3.217000000
H    -4.646000000     2.883000000    -2.623000000
H    -4.013000000     4.250000000    -2.766000000
O    -2.325000000    -2.422000000    -4.799000000
H    -1.555000000    -2.045000000    -5.226000000
H    -2.856000000    -2.762000000    -5.520000000
O     2.047000000    -4.962000000    -2.865000000
H     2.850000000    -4.767000000    -2.381000000
H     2.329000000    -5.030000000    -3.777000000
O     1.148000000     4.608000000    -1.910000000
H     1.975000000     4.408000000    -1.472000000
H     1.028000000     3.893000000    -2.535000000
O    -3.010000000    -3.405000000    -2.326000000
H    -3.486000000    -2.616000000    -2.068000000
H    -2.737000000    -3.236000000    -3.228000000
O     8.458000000     1.445000000     2.352000000
H     8.687000000     0.533000000     2.530000000
H     7.787000000     1.395000000     1.671000000
O     0.281000000    -4.843000000     0.148000000
H     0.019000000    -4.682000000    -0.758000000
H    -0.543000000    -4.984000000     0.614000000
O    -2.179000000     1.944000000    -4.260000000
H    -1.445000000     2.188000000    -4.824000000
H    -1.988000000     2.368000000    -3.423000000
O     0.127000000     4.460000000     3.150000000
H    -0.008000000     3.968000000     3.960000000
H     1.069000000     4.630000000     3.128000000
O    -7.105000000    -1.504000000    -2.379000000
H    -6.622000000    -1.056000000    -3.074000000
H    -7.896000000    -1.830000000    -2.809000000
O    -1.718000000    -0.496000000     2.539000000
H    -1.500000000    -0.712000000     1.632000000
H    -1.476000000     0.425000000     2.631000000
O     5.953000000     4.766000000     2.799000000
H     5.586000000     4.463000000     1.969000000
H     6.582000000     4.088000000     3.045000000
O     1.235000000     1.602000000     4.929000000
H     1.465000000     2.078000000     4.131000000
H     1.716000000     0.777000000     4.863000000
O    -1.563000000     2.151000000     2.689000000
H    -1.976000000     2.472000000     3.491000000
H    -1.090000000     2.908000000     2.344000000
O     5.986000000     0.512000000     0.947000000
H     5.073000000     0.636000000     1.205000000
H     6.251000000    -0.297000000     1.384000000
O    -3.846000000     2.299000000    -6.821000000
H    -4.372000000     3.095000000    -6.888000000
H    -3.421000000     2.364000000    -5.966000000
O     2.771000000    -0.054000000    -1.967000000
H     3.169000000    -0.118000000    -2.835000000
H     2.982000000    -0.887000000    -1.545000000
O    -1.649000000     6.419000000     1.725000000
H    -1.224000000     6.240000000     0.887000000
H    -1.014000000     6.133000000     2.382000000
O     3.194000000    -3.100000000     6.146000000
H     2.428000000    -2.552000000     6.314000000
H     3.699000000    -2.613000000     5.494000000
O     4.348000000     4.779000000     0.380000000
H     4.057000000     4.020000000    -0.125000000
H     3.537000000     5.217000000     0.642000000
O    -2.231000000    -5.430000000     0.774000000
H    -2.863000000    -4.711000000     0.784000000
H    -2.259000000    -5.761000000    -0.123000000
O     1.999000000     5.946000000     1.116000000
H     1.099000000     5.716000000     0.885000000
H     1.908000000     6.617000000     1.793000000
O     2.987000000    -4.567000000     1.040000000
H     2.072000000    -4.285000000     1.010000000
H     3.086000000    -4.966000000     1.904000000
O    -0.398000000     6.209000000    -0.519000000
H    -0.101000000     5.648000000    -1.235000000
H    -0.273000000     7.100000000    -0.846000000
O    -4.172000000    -3.627000000     1.028000000
H    -3.931000000    -3.223000000     1.861000000
H    -5.006000000    -3.217000000     0.796000000
O    -6.669000000     0.454000000     0.726000000
H    -6.635000000    -0.502000000     0.741000000
H    -5.808000000     0.730000000     1.040000000
O     3.821000000    -2.318000000    -0.665000000
H     4.064000000    -3.240000000    -0.581000000
H     3.568000000    -2.056000000     0.220000000
O     4.379000000    -5.484000000    -1.074000000
H     4.117000000    -5.073000000    -0.250000000
H     3.676000000    -6.105000000    -1.265000000
O    -3.078000000     5.069000000    -1.391000000
H    -2.263000000     5.411000000    -1.024000000
H    -3.746000000     5.298000000    -0.745000000
O     2.939000000     3.088000000     2.975000000
H     3.236000000     2.465000000     2.312000000
H     3.536000000     2.957000000     3.711000000
O     6.409000000     1.403000000    -1.760000000
H     5.709000000     0.852000000    -2.111000000
H     6.307000000     1.343000000    -0.811000000
