161
-3041.53041
C     0.885000000    -1.107000000     0.314000000
H     1.441000000    -2.009000000     0.556000000
C    -0.487000000    -1.148000000     0.315000000
H    -1.103000000    -1.996000000     0.604000000
C    -1.203000000    -0.032000000    -0.054000000
C    -2.673000000    -0.152000000    -0.173000000
H    -2.934000000    -0.926000000    -0.897000000
H    -3.174000000    -0.503000000     0.732000000
H    -3.156000000     0.770000000    -0.503000000
C    -0.525000000     1.108000000    -0.465000000
H    -1.148000000     1.906000000    -0.860000000
C     0.849000000     1.216000000    -0.387000000
H     1.344000000     2.161000000    -0.593000000
C     1.577000000     0.112000000     0.099000000
C     3.002000000     0.196000000     0.327000000
O     3.610000000     1.231000000     0.380000000
O     3.688000000    -0.823000000     0.604000000
O     4.620000000    -2.070000000     2.810000000
H     5.514000000    -1.917000000     3.117000000
H     4.490000000    -1.419000000     2.120000000
O     2.905000000    -4.097000000     3.936000000
H     2.016000000    -3.828000000     3.706000000
H     3.467000000    -3.430000000     3.541000000
O    -0.554000000     1.708000000     3.634000000
H     0.240000000     1.237000000     3.382000000
H    -1.265000000     1.216000000     3.223000000
O    -3.967000000    -0.189000000    -3.630000000
H    -3.944000000    -0.667000000    -4.459000000
H    -3.086000000     0.173000000    -3.538000000
O    -6.249000000    -0.002000000    -2.237000000
H    -5.417000000    -0.081000000    -2.705000000
H    -6.098000000    -0.450000000    -1.404000000
O     5.600000000    -1.660000000    -0.820000000
H     4.897000000    -1.203000000    -0.359000000
H     6.374000000    -1.523000000    -0.273000000
O    -1.851000000    -7.307000000     1.435000000
H    -2.020000000    -7.551000000     0.525000000
H    -1.912000000    -6.352000000     1.443000000
O    -1.848000000    -3.842000000    -5.270000000
H    -1.425000000    -3.452000000    -4.505000000
H    -1.421000000    -4.693000000    -5.372000000
O     2.664000000     5.374000000    -3.180000000
H     2.752000000     6.043000000    -2.501000000
H     3.163000000     4.628000000    -2.846000000
O    -0.041000000    -2.471000000     5.991000000
H    -0.300000000    -2.087000000     5.153000000
H     0.758000000    -2.002000000     6.232000000
O     5.048000000    -2.303000000    -3.317000000
H     4.321000000    -2.916000000    -3.208000000
H     5.204000000    -1.959000000    -2.437000000
O    -1.244000000    -5.536000000    -2.284000000
H    -0.880000000    -4.760000000    -2.710000000
H    -0.651000000    -6.246000000    -2.531000000
O     3.737000000     3.318000000    -1.748000000
H     3.704000000     2.610000000    -1.104000000
H     4.106000000     2.911000000    -2.532000000
O    -3.002000000     0.062000000     3.266000000
H    -3.442000000    -0.125000000     4.096000000
H    -3.715000000     0.252000000     2.655000000
O    -3.317000000     3.037000000    -2.725000000
H    -4.150000000     2.644000000    -2.464000000
H    -2.977000000     3.433000000    -1.922000000
O     0.736000000    -3.668000000    -3.830000000
H     1.616000000    -3.933000000    -3.562000000
H     0.844000000    -3.356000000    -4.729000000
O     0.501000000     3.572000000    -2.962000000
H     1.057000000     4.271000000    -3.305000000
H     0.976000000     3.238000000    -2.201000000
O    -3.986000000    -4.846000000    -3.389000000
H    -3.146000000    -4.872000000    -2.929000000
H    -3.759000000    -4.617000000    -4.290000000
O    -8.466000000    -1.587000000    -0.466000000
H    -7.527000000    -1.753000000    -0.542000000
H    -8.878000000    -2.328000000    -0.911000000
O     2.130000000    -5.912000000     0.662000000
H     2.787000000    -5.268000000     0.927000000
H     2.278000000    -6.032000000    -0.276000000
O    -1.650000000     1.260000000    -4.045000000
H    -0.931000000     1.570000000    -4.596000000
H    -2.035000000     2.058000000    -3.683000000
O     8.169000000     0.627000000    -2.360000000
H     7.840000000     0.032000000    -3.033000000
H     7.547000000     0.540000000    -1.637000000
O    -5.302000000     1.212000000     2.059000000
H    -5.912000000     1.503000000     2.736000000
H    -4.993000000     2.021000000     1.651000000
O    -6.740000000    -4.095000000    -1.812000000
H    -6.222000000    -3.611000000    -2.454000000
H    -7.109000000    -4.828000000    -2.305000000
O    -0.853000000    -1.288000000     3.527000000
H    -1.694000000    -0.834000000     3.483000000
H    -0.571000000    -1.359000000     2.615000000
O     5.404000000     2.354000000     1.909000000
H     4.678000000     2.023000000     1.380000000
H     5.012000000     3.040000000     2.450000000
O     2.799000000     0.167000000    -5.260000000
H     3.659000000    -0.096000000    -4.933000000
H     2.177000000    -0.272000000    -4.680000000
O    -0.879000000     6.144000000     1.715000000
H    -0.722000000     5.582000000     0.956000000
H    -0.882000000     5.544000000     2.461000000
O     5.672000000     2.198000000    -3.198000000
H     5.659000000     1.397000000    -3.721000000
H     5.925000000     1.908000000    -2.321000000
O    -1.855000000    -4.226000000     4.523000000
H    -1.164000000    -4.391000000     3.881000000
H    -1.439000000    -3.676000000     5.187000000
O    -5.081000000     3.817000000     1.120000000
H    -5.544000000     3.613000000     0.307000000
H    -4.248000000     4.191000000     0.833000000
O     4.306000000     4.847000000     0.630000000
H     4.027000000     4.087000000     0.119000000
H     3.589000000     5.475000000     0.537000000
O    -6.103000000     2.874000000    -1.241000000
H    -6.808000000     3.381000000    -1.641000000
H    -6.338000000     1.961000000    -1.410000000
O    -1.829000000    -4.476000000     0.304000000
H    -2.774000000    -4.325000000     0.305000000
H    -1.640000000    -4.804000000    -0.575000000
O     6.364000000     4.819000000    -1.029000000
H     7.152000000     4.381000000    -0.706000000
H     5.727000000     4.718000000    -0.322000000
O     1.976000000     6.307000000     0.620000000
H     1.327000000     5.948000000     0.014000000
H     1.468000000     6.857000000     1.217000000
O     4.191000000    -4.089000000     0.353000000
H     4.371000000    -3.149000000     0.380000000
H     4.614000000    -4.436000000     1.138000000
O     0.165000000     5.383000000    -0.941000000
H    -0.018000000     4.700000000    -1.587000000
H    -0.118000000     6.194000000    -1.364000000
O    -4.534000000    -3.882000000    -0.263000000
H    -5.137000000    -3.793000000    -1.001000000
H    -4.967000000    -4.500000000     0.327000000
O    -5.771000000    -1.379000000    -0.050000000
H    -5.011000000    -1.962000000    -0.047000000
H    -5.928000000    -1.187000000     0.874000000
O     1.499000000    -0.981000000    -3.137000000
H     1.216000000    -1.895000000    -3.162000000
H     0.799000000    -0.525000000    -2.670000000
O     0.092000000    -4.790000000     2.218000000
H     0.808000000    -5.208000000     1.740000000
H    -0.555000000    -4.581000000     1.544000000
O     3.727000000    -4.275000000    -2.358000000
H     4.043000000    -3.990000000    -1.501000000
H     3.438000000    -5.177000000    -2.219000000
O    -2.400000000     3.977000000    -0.352000000
H    -2.666000000     4.838000000    -0.676000000
H    -1.723000000     4.164000000     0.298000000
O     5.417000000    -0.293000000     5.614000000
H     5.371000000     0.315000000     6.352000000
H     4.810000000     0.068000000     4.968000000
O    -1.910000000     5.202000000    -3.475000000
H    -2.411000000     4.389000000    -3.540000000
H    -2.397000000     5.733000000    -2.845000000
O     3.250000000     1.018000000     3.852000000
H     3.415000000     0.733000000     2.953000000
H     3.781000000     1.808000000     3.954000000
O     6.077000000     1.013000000    -0.583000000
H     6.548000000     1.159000000     0.237000000
H     5.159000000     0.935000000    -0.321000000
