161
-3046.90307
C    -0.682000000    -0.861000000    -0.980000000
H    -1.132000000    -1.359000000    -1.835000000
C     0.629000000    -0.394000000    -1.113000000
H     1.217000000    -0.694000000    -1.976000000
C     1.152000000     0.466000000    -0.151000000
C     2.525000000     1.030000000    -0.217000000
H     2.342000000     1.998000000    -0.689000000
H     3.004000000     1.254000000     0.738000000
H     3.224000000     0.428000000    -0.800000000
C     0.364000000     0.779000000     0.937000000
H     0.676000000     1.489000000     1.699000000
C    -0.934000000     0.297000000     1.119000000
H    -1.431000000     0.526000000     2.058000000
C    -1.460000000    -0.666000000     0.147000000
C    -2.805000000    -1.293000000     0.320000000
O    -3.264000000    -1.424000000     1.417000000
O    -3.421000000    -1.568000000    -0.674000000
O     1.345000000     5.184000000     0.870000000
H     1.161000000     6.120000000     0.948000000
H     0.552000000     4.756000000     1.195000000
O    -5.320000000    -3.446000000    -1.040000000
H    -4.703000000    -2.727000000    -1.179000000
H    -5.760000000    -3.227000000    -0.218000000
O    -6.975000000    -1.664000000    -4.138000000
H    -6.957000000    -0.864000000    -4.663000000
H    -6.198000000    -1.604000000    -3.582000000
O     4.377000000    -2.147000000    -1.220000000
H     4.123000000    -1.656000000    -2.001000000
H     3.679000000    -2.793000000    -1.106000000
O    -0.348000000    -0.494000000    -4.201000000
H     0.509000000    -0.920000000    -4.218000000
H    -0.192000000     0.339000000    -3.757000000
O    -1.018000000    -1.226000000     4.787000000
H    -0.318000000    -0.915000000     4.213000000
H    -0.569000000    -1.747000000     5.453000000
O    -1.483000000     2.623000000    -3.878000000
H    -1.776000000     1.982000000    -4.527000000
H    -1.903000000     2.347000000    -3.064000000
O    -0.532000000    -3.504000000    -5.147000000
H    -1.007000000    -4.279000000    -4.846000000
H    -1.186000000    -2.805000000    -5.141000000
O    -0.308000000    -4.801000000    -2.143000000
H    -0.166000000    -5.543000000    -2.730000000
H    -1.260000000    -4.719000000    -2.085000000
O    -3.546000000    -5.098000000     4.495000000
H    -4.405000000    -4.914000000     4.113000000
H    -2.979000000    -4.407000000     4.153000000
O    -4.102000000     0.766000000     2.775000000
H    -3.814000000     1.134000000     1.939000000
H    -4.033000000    -0.181000000     2.656000000
O     6.592000000     3.485000000     2.822000000
H     6.002000000     3.132000000     2.157000000
H     6.645000000     4.420000000     2.623000000
O    -0.225000000     3.307000000     4.781000000
H    -0.558000000     3.110000000     3.905000000
H     0.636000000     3.696000000     4.628000000
O     4.009000000     2.737000000     3.545000000
H     4.183000000     1.821000000     3.762000000
H     4.179000000     3.212000000     4.359000000
O    -1.602000000    -3.851000000     2.903000000
H    -1.644000000    -2.900000000     3.002000000
H    -1.387000000    -3.986000000     1.980000000
O    -3.802000000     1.660000000     0.332000000
H    -3.549000000     1.632000000    -0.591000000
H    -4.265000000     2.492000000     0.428000000
O     5.560000000    -1.230000000    -3.904000000
H     4.899000000    -1.750000000    -4.362000000
H     5.387000000    -0.329000000    -4.178000000
O     5.628000000     1.252000000    -5.158000000
H     5.516000000     1.631000000    -6.030000000
H     5.004000000     1.725000000    -4.609000000
O     2.045000000    -3.846000000    -1.474000000
H     1.127000000    -4.100000000    -1.570000000
H     2.525000000    -4.674000000    -1.486000000
O     1.019000000    -2.905000000     1.012000000
H     1.101000000    -3.230000000     0.115000000
H     0.586000000    -2.056000000     0.920000000
O    -1.174000000     3.313000000    -0.697000000
H    -1.347000000     3.929000000     0.016000000
H    -1.038000000     2.473000000    -0.260000000
O    -3.019000000     0.717000000    -2.358000000
H    -3.582000000     0.438000000    -3.080000000
H    -2.944000000    -0.057000000    -1.799000000
O     4.075000000     3.917000000     1.044000000
H     3.181000000     4.227000000     0.895000000
H     4.061000000     3.566000000     1.934000000
O    -7.153000000     0.329000000     0.367000000
H    -6.990000000     0.866000000     1.142000000
H    -8.089000000     0.432000000     0.196000000
O     5.191000000    -0.011000000     3.491000000
H     6.117000000     0.233000000     3.480000000
H     5.091000000    -0.604000000     2.746000000
O     3.912000000    -1.842000000     1.539000000
H     2.963000000    -1.730000000     1.587000000
H     4.104000000    -1.863000000     0.602000000
O    -2.707000000    -1.593000000    -5.046000000
H    -3.433000000    -0.978000000    -5.147000000
H    -1.963000000    -1.047000000    -4.792000000
O    -5.784000000    -0.564000000     5.413000000
H    -5.181000000    -1.255000000     5.136000000
H    -5.218000000     0.109000000     5.792000000
O     4.548000000     4.524000000    -1.637000000
H     3.944000000     4.469000000    -0.897000000
H     4.651000000     5.463000000    -1.794000000
O    -1.573000000     4.653000000     1.539000000
H    -1.696000000     5.448000000     1.021000000
H    -2.225000000     4.719000000     2.237000000
O    -5.817000000    -4.657000000     2.007000000
H    -6.575000000    -5.012000000     2.471000000
H    -6.013000000    -3.725000000     1.906000000
O    -5.740000000    -0.314000000    -1.893000000
H    -6.223000000    -0.109000000    -1.092000000
H    -4.951000000    -0.762000000    -1.589000000
O    -5.029000000    -4.495000000    -4.061000000
H    -5.350000000    -5.388000000    -4.192000000
H    -5.439000000    -4.210000000    -3.245000000
O    -2.335000000    -5.259000000    -4.002000000
H    -3.135000000    -4.787000000    -3.771000000
H    -2.389000000    -6.077000000    -3.507000000
O    -3.478000000    -1.875000000     3.971000000
H    -2.661000000    -1.497000000     4.298000000
H    -3.332000000    -1.985000000     3.031000000
O    -6.079000000    -2.077000000     1.459000000
H    -5.305000000    -1.646000000     1.820000000
H    -6.674000000    -1.360000000     1.243000000
O     1.842000000    -2.496000000    -3.809000000
H     1.952000000    -3.188000000    -3.157000000
H     0.990000000    -2.674000000    -4.206000000
O    -4.052000000     1.653000000     5.231000000
H    -4.164000000     1.451000000     4.302000000
H    -4.272000000     2.582000000     5.303000000
O    -2.528000000    -4.277000000     0.081000000
H    -2.685000000    -3.374000000    -0.193000000
H    -3.366000000    -4.719000000    -0.056000000
O     1.163000000     2.867000000    -4.668000000
H     0.329000000     2.852000000    -4.199000000
H     1.121000000     3.658000000    -5.206000000
O     1.958000000    -1.175000000     4.219000000
H     1.730000000    -1.831000000     4.879000000
H     2.792000000    -1.477000000     3.860000000
O    -1.703000000     2.093000000     6.522000000
H    -2.498000000     2.086000000     5.989000000
H    -1.000000000     2.288000000     5.901000000
O     3.746000000    -2.089000000    -5.799000000
H     2.977000000    -1.823000000    -5.295000000
H     3.571000000    -1.774000000    -6.686000000
O     3.808000000     2.602000000    -3.656000000
H     3.860000000     3.267000000    -2.970000000
H     2.918000000     2.681000000    -3.999000000
O     5.709000000     2.248000000    -0.209000000
H     5.435000000     2.514000000    -1.087000000
H     4.917000000     2.323000000     0.323000000
O     1.456000000     5.616000000    -2.420000000
H     1.259000000     4.766000000    -2.025000000
H     0.766000000     6.196000000    -2.098000000
O     8.175000000     0.753000000     0.131000000
H     8.311000000     0.602000000    -0.804000000
H     7.224000000     0.758000000     0.238000000
O    -6.835000000     1.532000000     2.876000000
H    -7.218000000     1.636000000     3.747000000
H    -5.906000000     1.366000000     3.041000000
