161
-3032.68926
C     0.340000000     0.471000000     1.367000000
H     0.611000000     0.688000000     2.397000000
C    -0.439000000    -0.587000000     1.020000000
H    -0.802000000    -1.204000000     1.838000000
C    -0.758000000    -0.927000000    -0.271000000
C    -1.675000000    -2.112000000    -0.564000000
H    -1.254000000    -2.819000000    -1.282000000
H    -1.751000000    -2.728000000     0.335000000
H    -2.685000000    -1.803000000    -0.843000000
C    -0.248000000    -0.165000000    -1.311000000
H    -0.553000000    -0.372000000    -2.333000000
C     0.541000000     0.973000000    -0.961000000
H     1.032000000     1.435000000    -1.814000000
C     0.939000000     1.293000000     0.327000000
C     1.956000000     2.307000000     0.606000000
O     2.553000000     2.926000000    -0.264000000
O     2.195000000     2.621000000     1.761000000
O     2.827000000    -2.691000000     2.477000000
H     2.050000000    -3.041000000     2.913000000
H     2.753000000    -1.742000000     2.580000000
O     3.304000000     0.417000000     3.063000000
H     4.042000000     0.762000000     3.566000000
H     2.816000000     1.194000000     2.789000000
O     3.841000000     2.904000000    -4.672000000
H     3.712000000     1.959000000    -4.591000000
H     4.168000000     3.025000000    -5.564000000
O    -3.150000000    -1.547000000     2.534000000
H    -4.017000000    -1.241000000     2.266000000
H    -2.896000000    -2.170000000     1.853000000
O     1.007000000    -4.216000000    -2.064000000
H     0.599000000    -4.188000000    -1.199000000
H     1.040000000    -3.301000000    -2.343000000
O     0.959000000     5.548000000    -4.895000000
H     1.189000000     6.468000000    -4.771000000
H     1.251000000     5.118000000    -4.091000000
O    -1.056000000     2.801000000    -3.437000000
H    -1.162000000     2.203000000    -2.698000000
H    -1.050000000     3.673000000    -3.041000000
O     5.610000000    -1.533000000     2.481000000
H     5.441000000    -1.916000000     3.342000000
H     4.860000000    -0.959000000     2.324000000
O     0.792000000    -6.306000000    -3.994000000
H     0.656000000    -5.596000000    -3.367000000
H     1.543000000    -6.025000000    -4.516000000
O     1.113000000    -6.075000000     0.833000000
H     1.100000000    -6.435000000    -0.054000000
H     2.008000000    -6.224000000     1.139000000
O     4.057000000     0.243000000    -4.336000000
H     4.948000000     0.349000000    -4.668000000
H     4.134000000     0.388000000    -3.393000000
O    -3.528000000    -2.315000000    -3.516000000
H    -2.983000000    -2.354000000    -4.302000000
H    -3.314000000    -1.471000000    -3.117000000
O     3.268000000    -2.806000000    -4.121000000
H     3.540000000    -1.898000000    -4.256000000
H     2.313000000    -2.779000000    -4.164000000
O     0.906000000     3.851000000     5.968000000
H     0.580000000     3.008000000     5.652000000
H     1.233000000     4.291000000     5.183000000
O     6.183000000     1.076000000    -2.302000000
H     6.770000000     1.417000000    -2.977000000
H     5.838000000     1.857000000    -1.869000000
O    -0.379000000     1.574000000     5.527000000
H    -0.616000000     1.802000000     4.628000000
H    -1.119000000     1.878000000     6.054000000
O    -0.936000000     2.672000000     3.157000000
H    -1.304000000     3.241000000     2.481000000
H    -0.233000000     2.197000000     2.714000000
O     2.015000000     4.451000000    -2.282000000
H     2.064000000     3.928000000    -1.482000000
H     2.570000000     3.985000000    -2.907000000
O    -1.056000000     4.567000000     0.830000000
H    -0.204000000     4.961000000     1.015000000
H    -1.104000000     4.535000000    -0.126000000
O    -0.608000000     5.047000000    -1.844000000
H    -0.583000000     6.001000000    -1.907000000
H     0.310000000     4.780000000    -1.880000000
O     5.155000000     5.899000000    -1.734000000
H     5.806000000     6.211000000    -1.105000000
H     4.464000000     6.561000000    -1.711000000
O     3.058000000     7.354000000    -0.676000000
H     3.558000000     8.170000000    -0.709000000
H     2.149000000     7.635000000    -0.571000000
O    -3.301000000     2.214000000    -1.489000000
H    -4.165000000     2.067000000    -1.106000000
H    -3.379000000     3.054000000    -1.941000000
O     2.619000000     5.231000000     3.749000000
H     3.543000000     5.428000000     3.594000000
H     2.408000000     4.552000000     3.108000000
O    -5.849000000    -1.028000000     1.791000000
H    -6.189000000    -1.737000000     2.337000000
H    -6.359000000    -0.261000000     2.050000000
O    -2.105000000    -6.066000000    -1.744000000
H    -1.651000000    -6.893000000    -1.580000000
H    -2.270000000    -6.067000000    -2.687000000
O     1.649000000     5.421000000     0.495000000
H     1.947000000     4.519000000     0.384000000
H     2.219000000     5.935000000    -0.077000000
O    -1.910000000    -1.506000000    -5.618000000
H    -1.567000000    -1.752000000    -6.478000000
H    -1.947000000    -0.550000000    -5.640000000
O    -3.192000000     0.946000000     4.256000000
H    -2.912000000     0.474000000     3.472000000
H    -2.661000000     1.743000000     4.258000000
O    -1.909000000    -2.395000000     5.002000000
H    -2.498000000    -2.043000000     5.669000000
H    -2.314000000    -2.147000000     4.171000000
O    -4.949000000    -5.058000000    -3.456000000
H    -5.298000000    -5.148000000    -4.343000000
H    -4.061000000    -4.724000000    -3.581000000
O    -3.231000000     0.353000000    -3.297000000
H    -3.618000000     0.918000000    -3.966000000
H    -3.214000000     0.893000000    -2.507000000
O    -5.263000000    -3.565000000     0.506000000
H    -4.714000000    -3.984000000     1.169000000
H    -5.495000000    -2.718000000     0.888000000
O     2.399000000    -2.068000000    -0.651000000
H     2.232000000    -2.452000000     0.210000000
H     1.671000000    -1.463000000    -0.789000000
O     0.947000000    -0.668000000     6.068000000
H     0.205000000    -1.269000000     5.998000000
H     0.622000000     0.157000000     5.709000000
O    -0.318000000    -4.329000000     1.939000000
H     0.129000000    -4.017000000     2.726000000
H     0.182000000    -5.100000000     1.670000000
O     1.937000000    -0.543000000    -6.111000000
H     1.261000000     0.133000000    -6.064000000
H     2.714000000    -0.132000000    -5.733000000
O    -2.557000000    -5.084000000     0.879000000
H    -2.296000000    -5.164000000    -0.039000000
H    -1.761000000    -4.804000000     1.331000000
O    -5.878000000    -2.197000000    -1.931000000
H    -5.839000000    -2.858000000    -1.239000000
H    -5.131000000    -2.397000000    -2.495000000
O    -4.171000000    -6.474000000     2.558000000
H    -3.599000000    -5.863000000     2.093000000
H    -3.756000000    -6.588000000     3.413000000
O     4.910000000     1.448000000     5.110000000
H     4.605000000     0.792000000     5.737000000
H     4.793000000     2.284000000     5.562000000
O     0.329000000     1.475000000    -5.577000000
H     0.067000000     1.984000000    -4.810000000
H    -0.477000000     1.374000000    -6.084000000
O     0.623000000    -3.390000000     4.191000000
H     1.060000000    -3.716000000     4.977000000
H    -0.150000000    -2.930000000     4.520000000
O    -6.001000000     0.137000000    -4.451000000
H    -5.105000000    -0.080000000    -4.709000000
H    -6.034000000    -0.058000000    -3.514000000
O     5.527000000     5.438000000     3.623000000
H     5.604000000     6.227000000     3.087000000
H     5.665000000     4.716000000     3.009000000
O     0.319000000    -2.243000000    -4.580000000
H     0.724000000    -1.761000000    -5.301000000
H    -0.600000000    -1.974000000    -4.599000000
O     4.797000000     3.411000000     1.720000000
H     3.846000000     3.391000000     1.826000000
H     4.986000000     2.694000000     1.115000000
O     4.859000000     3.289000000    -1.553000000
H     4.927000000     4.241000000    -1.480000000
H     4.102000000     3.061000000    -1.014000000
