161
-3055.00366
C    -0.269000000     0.448000000     1.423000000
H    -0.541000000     0.771000000     2.424000000
C    -1.209000000    -0.130000000     0.503000000
H    -2.254000000    -0.251000000     0.775000000
C    -0.893000000    -0.395000000    -0.794000000
C    -1.917000000    -0.974000000    -1.759000000
H    -2.025000000    -0.326000000    -2.631000000
H    -1.558000000    -1.949000000    -2.098000000
H    -2.844000000    -1.095000000    -1.194000000
C     0.464000000    -0.319000000    -1.163000000
H     0.783000000    -0.558000000    -2.175000000
C     1.471000000     0.165000000    -0.330000000
H     2.522000000     0.174000000    -0.607000000
C     1.094000000     0.609000000     0.971000000
C     2.119000000     1.094000000     1.955000000
O     3.231000000     1.517000000     1.596000000
O     1.830000000     1.218000000     3.109000000
O     2.649000000    -3.214000000     3.333000000
H     1.955000000    -2.694000000     3.739000000
H     3.198000000    -3.494000000     4.065000000
O    -4.921000000    -0.395000000     4.650000000
H    -4.418000000    -1.207000000     4.588000000
H    -5.149000000    -0.324000000     5.577000000
O    -4.695000000    -4.460000000    -0.407000000
H    -5.608000000    -4.687000000    -0.235000000
H    -4.692000000    -4.146000000    -1.312000000
O     1.907000000    -3.395000000    -3.223000000
H     1.958000000    -2.713000000    -3.892000000
H     2.130000000    -4.203000000    -3.686000000
O    -3.475000000    -2.519000000     4.127000000
H    -2.604000000    -2.574000000     4.519000000
H    -3.333000000    -2.699000000     3.198000000
O    -2.924000000    -4.104000000     1.692000000
H    -3.540000000    -4.404000000     1.024000000
H    -2.071000000    -4.130000000     1.259000000
O     0.058000000     2.427000000    -4.295000000
H    -0.372000000     3.256000000    -4.504000000
H     0.681000000     2.649000000    -3.603000000
O     4.453000000     0.623000000     5.594000000
H     4.134000000     1.400000000     5.135000000
H     4.385000000     0.847000000     6.522000000
O    -6.287000000    -0.944000000    -5.977000000
H    -5.788000000    -0.884000000    -6.792000000
H    -5.621000000    -0.995000000    -5.291000000
O     1.229000000    -1.368000000     4.533000000
H     1.694000000    -1.419000000     5.368000000
H     1.457000000    -0.506000000     4.184000000
O     5.164000000     0.711000000    -2.348000000
H     5.079000000     1.377000000    -3.031000000
H     4.704000000    -0.051000000    -2.699000000
O    -0.643000000     0.152000000     5.836000000
H    -0.453000000    -0.629000000     5.315000000
H    -1.339000000    -0.123000000     6.432000000
O     2.819000000     3.980000000     6.561000000
H     3.694000000     3.797000000     6.902000000
H     2.421000000     3.117000000     6.446000000
O    -0.336000000    -5.329000000    -3.232000000
H    -0.408000000    -4.723000000    -2.495000000
H     0.427000000    -5.868000000    -3.025000000
O     2.181000000     3.252000000    -2.542000000
H     2.672000000     3.630000000    -3.272000000
H     2.671000000     3.515000000    -1.763000000
O    -0.430000000     0.115000000    -5.625000000
H    -0.193000000     0.973000000    -5.272000000
H    -1.113000000    -0.206000000    -5.036000000
O    -3.508000000     2.243000000     4.156000000
H    -2.959000000     1.836000000     4.826000000
H    -4.102000000     1.546000000     3.878000000
O     4.165000000    -2.330000000     1.177000000
H     3.641000000    -2.765000000     1.850000000
H     4.546000000    -1.573000000     1.621000000
O     7.848000000    -0.152000000     0.560000000
H     7.986000000    -0.011000000    -0.376000000
H     7.019000000     0.286000000     0.749000000
O     1.673000000    -2.248000000    -5.862000000
H     0.992000000    -1.602000000    -5.674000000
H     1.733000000    -2.261000000    -6.817000000
O    -5.539000000    -1.581000000     1.286000000
H    -5.408000000    -2.320000000     0.692000000
H    -5.894000000    -1.975000000     2.084000000
O    -0.834000000    -3.881000000     0.030000000
H     0.090000000    -3.645000000    -0.050000000
H    -1.285000000    -3.289000000    -0.572000000
O    -2.553000000     3.141000000    -2.169000000
H    -2.327000000     4.042000000    -2.402000000
H    -1.723000000     2.748000000    -1.899000000
O     5.226000000    -1.863000000    -3.083000000
H     4.918000000    -2.766000000    -3.016000000
H     6.166000000    -1.917000000    -2.910000000
O     2.378000000     5.787000000     2.830000000
H     3.320000000     5.617000000     2.817000000
H     2.281000000     6.628000000     2.383000000
O    -4.146000000     1.162000000    -2.836000000
H    -3.577000000     1.912000000    -2.661000000
H    -4.540000000     0.957000000    -1.988000000
O     2.624000000     3.881000000     0.095000000
H     2.888000000     3.001000000     0.365000000
H     1.879000000     4.091000000     0.658000000
O    -6.879000000     1.309000000    -3.841000000
H    -5.995000000     1.573000000    -3.584000000
H    -6.848000000     1.268000000    -4.797000000
O    -0.410000000    -6.640000000    -0.017000000
H    -0.873000000    -5.806000000    -0.092000000
H     0.372000000    -6.434000000     0.497000000
O     7.748000000     2.432000000     2.787000000
H     7.626000000     1.486000000     2.871000000
H     7.629000000     2.768000000     3.676000000
O     5.050000000     5.487000000     2.308000000
H     5.519000000     5.200000000     1.524000000
H     5.540000000     5.101000000     3.034000000
O    -1.125000000    -5.431000000    -5.864000000
H    -0.873000000    -5.062000000    -5.018000000
H    -1.049000000    -4.700000000    -6.477000000
O     0.478000000     2.622000000     4.945000000
H    -0.054000000     1.980000000     5.416000000
H     1.100000000     2.095000000     4.444000000
O    -4.210000000    -1.452000000    -4.234000000
H    -3.789000000    -0.759000000    -3.726000000
H    -3.629000000    -1.586000000    -4.983000000
O    -4.028000000     3.925000000     0.041000000
H    -3.678000000     3.402000000    -0.680000000
H    -3.258000000     4.329000000     0.441000000
O     4.207000000     5.262000000    -1.669000000
H     3.949000000     6.172000000    -1.821000000
H     3.774000000     5.024000000    -0.849000000
O    -1.849000000     4.407000000     3.423000000
H    -2.388000000     3.618000000     3.479000000
H    -1.050000000     4.121000000     2.980000000
O     1.925000000    -3.454000000    -0.298000000
H     2.741000000    -3.011000000    -0.067000000
H     1.857000000    -3.354000000    -1.247000000
O    -1.266000000     4.390000000     0.142000000
H    -0.687000000     4.315000000     0.901000000
H    -0.919000000     3.757000000    -0.487000000
O    -0.796000000    -2.976000000     4.962000000
H    -0.476000000    -3.728000000     5.461000000
H    -0.003000000    -2.515000000     4.688000000
O     4.917000000    -0.491000000     3.090000000
H     4.715000000     0.328000000     2.637000000
H     4.819000000    -0.281000000     4.019000000
O    -2.712000000    -2.475000000    -6.323000000
H    -1.922000000    -2.590000000    -6.852000000
H    -3.335000000    -3.107000000    -6.684000000
O     0.608000000     3.942000000     2.056000000
H     1.175000000     4.621000000     2.423000000
H     0.815000000     3.157000000     2.564000000
O    -0.081000000     2.540000000    -1.417000000
H    -0.176000000     1.605000000    -1.235000000
H     0.814000000     2.631000000    -1.743000000
O    -5.307000000     0.439000000    -0.391000000
H    -5.651000000     1.068000000     0.243000000
H    -5.037000000    -0.311000000     0.139000000
O     4.192000000     2.924000000     3.918000000
H     3.566000000     3.648000000     3.892000000
H     3.966000000     2.384000000     3.161000000
O     5.533000000     0.985000000     0.260000000
H     5.426000000     0.922000000    -0.690000000
H     4.655000000     1.182000000     0.587000000
O    -5.259000000    -3.977000000    -3.039000000
H    -5.159000000    -3.059000000    -3.289000000
H    -5.238000000    -4.455000000    -3.868000000
