161
-3040.88683
C    -0.089000000     0.885000000     1.065000000
H    -0.260000000     1.497000000     1.947000000
C    -0.743000000    -0.331000000     1.034000000
H    -1.389000000    -0.689000000     1.832000000
C    -0.571000000    -1.072000000    -0.132000000
C    -1.220000000    -2.416000000    -0.228000000
H    -2.268000000    -2.332000000    -0.525000000
H    -0.824000000    -3.126000000    -0.957000000
H    -1.216000000    -2.900000000     0.750000000
C     0.236000000    -0.547000000    -1.182000000
H     0.235000000    -1.171000000    -2.073000000
C     0.942000000     0.653000000    -1.057000000
H     1.507000000     1.204000000    -1.805000000
C     0.783000000     1.407000000     0.137000000
C     1.430000000     2.630000000     0.311000000
O     2.069000000     3.183000000    -0.562000000
O     1.383000000     3.133000000     1.453000000
O     2.512000000    -1.223000000     3.807000000
H     1.966000000    -1.251000000     4.592000000
H     2.748000000    -0.300000000     3.712000000
O     2.867000000     3.097000000    -6.734000000
H     2.636000000     2.512000000    -6.013000000
H     2.593000000     2.625000000    -7.521000000
O     2.584000000     1.730000000     3.388000000
H     3.053000000     2.468000000     3.778000000
H     1.981000000     2.133000000     2.762000000
O     5.531000000     4.312000000    -4.133000000
H     5.465000000     3.650000000    -4.821000000
H     4.630000000     4.434000000    -3.832000000
O    -3.616000000    -1.446000000     4.391000000
H    -4.355000000    -1.183000000     3.843000000
H    -3.414000000    -2.339000000     4.109000000
O     4.218000000    -2.177000000    -1.032000000
H     3.660000000    -2.560000000    -1.709000000
H     3.628000000    -2.021000000    -0.295000000
O     0.965000000     5.559000000    -3.899000000
H     1.459000000     6.330000000    -4.179000000
H     1.630000000     4.879000000    -3.782000000
O    -2.682000000     1.727000000    -2.587000000
H    -2.791000000     1.235000000    -1.773000000
H    -1.775000000     2.032000000    -2.563000000
O     4.750000000     1.243000000     1.197000000
H     5.502000000     1.268000000     1.789000000
H     4.246000000     2.027000000     1.416000000
O     0.318000000    -6.336000000    -5.044000000
H     0.249000000    -5.427000000    -4.754000000
H    -0.521000000    -6.729000000    -4.802000000
O     0.223000000    -2.831000000     3.430000000
H     1.136000000    -2.597000000     3.266000000
H     0.107000000    -2.703000000     4.371000000
O     3.866000000     0.961000000    -3.443000000
H     4.554000000     0.755000000    -4.076000000
H     4.314000000     0.971000000    -2.597000000
O    -5.955000000    -6.013000000     0.812000000
H    -5.844000000    -5.267000000     1.401000000
H    -5.255000000    -5.914000000     0.167000000
O    -5.676000000    -1.776000000    -2.186000000
H    -5.129000000    -2.561000000    -2.165000000
H    -5.499000000    -1.383000000    -3.041000000
O     6.884000000     3.607000000    -0.921000000
H     7.392000000     4.293000000    -1.354000000
H     6.089000000     4.049000000    -0.624000000
O     5.425000000     7.042000000    -0.006000000
H     5.041000000     6.236000000    -0.350000000
H     5.605000000     7.572000000    -0.782000000
O    -2.062000000     2.403000000     5.777000000
H    -2.722000000     2.494000000     5.090000000
H    -2.494000000     2.725000000     6.569000000
O     5.538000000     1.053000000    -1.451000000
H     5.970000000     1.901000000    -1.349000000
H     5.111000000     0.899000000    -0.608000000
O    -3.126000000     3.421000000     3.145000000
H    -3.980000000     3.290000000     2.733000000
H    -2.600000000     3.855000000     2.473000000
O     2.640000000     3.416000000    -3.201000000
H     2.407000000     3.325000000    -2.277000000
H     2.987000000     2.559000000    -3.446000000
O    -0.277000000     7.625000000    -1.676000000
H     0.112000000     6.787000000    -1.926000000
H     0.381000000     8.038000000    -1.117000000
O    -1.818000000     4.620000000     1.016000000
H    -1.070000000     5.027000000     1.454000000
H    -1.435000000     4.147000000     0.277000000
O    -0.408000000     3.514000000    -2.564000000
H    -0.017000000     4.245000000    -3.043000000
H     0.340000000     3.036000000    -2.204000000
O     4.236000000    -3.133000000    -5.144000000
H     3.974000000    -4.008000000    -4.858000000
H     3.853000000    -2.544000000    -4.494000000
O     3.781000000     6.604000000    -2.927000000
H     3.765000000     7.367000000    -2.349000000
H     3.303000000     6.884000000    -3.707000000
O     1.742000000     7.779000000     0.376000000
H     2.528000000     8.152000000    -0.023000000
H     1.746000000     8.116000000     1.272000000
O    -3.696000000     0.586000000     0.475000000
H    -2.908000000     0.111000000     0.740000000
H    -4.393000000     0.216000000     1.017000000
O     0.675000000     5.217000000     4.671000000
H     0.394000000     4.686000000     3.926000000
H     1.084000000     5.987000000     4.276000000
O     0.542000000     5.598000000     1.456000000
H     1.061000000     4.862000000     1.133000000
H     0.919000000     6.365000000     1.023000000
O     5.556000000     5.565000000     3.630000000
H     5.095000000     5.172000000     2.889000000
H     5.644000000     4.852000000     4.263000000
O    -2.584000000    -0.322000000     6.614000000
H    -2.698000000    -0.873000000     5.839000000
H    -2.873000000     0.546000000     6.334000000
O    -4.162000000    -3.794000000    -3.076000000
H    -3.601000000    -3.654000000    -3.839000000
H    -4.881000000    -4.334000000    -3.403000000
O    -4.021000000    -0.247000000    -4.504000000
H    -3.831000000     0.181000000    -5.339000000
H    -3.629000000     0.328000000    -3.846000000
O    -5.593000000    -1.173000000     2.118000000
H    -5.504000000    -2.009000000     1.662000000
H    -6.195000000    -1.356000000     2.839000000
O     2.484000000    -1.894000000     0.949000000
H     2.712000000    -1.709000000     1.860000000
H     1.951000000    -1.147000000     0.679000000
O     0.213000000     0.391000000     6.118000000
H    -0.641000000     0.273000000     6.533000000
H     0.054000000     1.029000000     5.422000000
O    -2.422000000    -3.742000000     3.422000000
H    -1.736000000    -3.184000000     3.056000000
H    -1.971000000    -4.283000000     4.070000000
O     2.841000000    -1.647000000    -3.345000000
H     2.004000000    -1.449000000    -3.764000000
H     3.317000000    -0.817000000    -3.355000000
O     2.222000000    -5.208000000    -1.151000000
H     2.410000000    -5.433000000    -0.240000000
H     1.515000000    -4.564000000    -1.099000000
O    -3.707000000    -5.287000000    -0.610000000
H    -3.274000000    -6.130000000    -0.746000000
H    -3.408000000    -4.744000000    -1.339000000
O    -6.911000000    -0.312000000    -0.336000000
H    -6.590000000    -0.718000000     0.470000000
H    -6.444000000    -0.769000000    -1.036000000
O    -4.367000000    -3.507000000     1.338000000
H    -4.166000000    -4.068000000     0.589000000
H    -3.638000000    -3.645000000     1.943000000
O     0.479000000    -0.816000000    -4.723000000
H     0.139000000    -0.168000000    -4.107000000
H     0.234000000    -0.480000000    -5.585000000
O     3.145000000     6.707000000     4.050000000
H     4.047000000     6.995000000     4.195000000
H     3.184000000     5.754000000     4.121000000
O    -0.615000000    -3.750000000    -4.756000000
H    -0.008000000    -3.181000000    -5.228000000
H    -1.482000000    -3.482000000    -5.061000000
O    -1.367000000     7.027000000     3.482000000
H    -0.690000000     6.362000000     3.608000000
H    -2.125000000     6.691000000     3.960000000
O     4.220000000     4.093000000     1.832000000
H     3.357000000     3.680000000     1.860000000
H     4.237000000     4.558000000     0.995000000
O     4.440000000     4.779000000    -0.906000000
H     4.401000000     5.377000000    -1.653000000
H     3.655000000     4.238000000    -0.991000000
