161
-3028.80803
C     0.530000000    -1.091000000     0.894000000
H     1.061000000    -1.774000000     1.551000000
C     1.244000000    -0.162000000     0.127000000
H     2.324000000    -0.277000000     0.078000000
C     0.631000000     0.685000000    -0.793000000
C     1.476000000     1.508000000    -1.708000000
H     2.304000000     0.939000000    -2.136000000
H     0.940000000     1.805000000    -2.612000000
H     1.775000000     2.425000000    -1.195000000
C    -0.784000000     0.852000000    -0.711000000
H    -1.309000000     1.562000000    -1.345000000
C    -1.488000000     0.044000000     0.133000000
H    -2.560000000     0.212000000     0.193000000
C    -0.849000000    -0.952000000     0.914000000
C    -1.558000000    -1.697000000     1.936000000
O    -2.766000000    -1.632000000     2.034000000
O    -0.963000000    -2.451000000     2.638000000
O     0.890000000    -4.567000000     0.135000000
H     0.969000000    -4.498000000     1.086000000
H     0.276000000    -5.289000000    -0.002000000
O    -6.586000000    -4.296000000     4.231000000
H    -5.942000000    -3.728000000     3.808000000
H    -7.417000000    -3.832000000     4.130000000
O    -4.046000000    -0.346000000     6.542000000
H    -3.885000000     0.492000000     6.974000000
H    -3.394000000    -0.384000000     5.841000000
O     1.102000000    -4.076000000     3.044000000
H     1.476000000    -4.105000000     3.925000000
H     0.397000000    -3.431000000     3.104000000
O     2.448000000    -3.037000000    -5.535000000
H     2.449000000    -2.790000000    -4.610000000
H     2.213000000    -3.965000000    -5.533000000
O     0.429000000    -6.881000000     3.518000000
H     1.080000000    -6.180000000     3.551000000
H     0.821000000    -7.595000000     4.020000000
O     0.613000000    -4.653000000     7.471000000
H     0.458000000    -4.665000000     6.527000000
H     0.006000000    -3.993000000     7.805000000
O     2.791000000    -4.299000000    -1.817000000
H     2.373000000    -4.724000000    -2.566000000
H     2.192000000    -4.456000000    -1.088000000
O    -1.183000000    -3.704000000    -2.221000000
H    -0.915000000    -4.228000000    -1.467000000
H    -0.939000000    -4.234000000    -2.980000000
O    -1.172000000     5.440000000     1.222000000
H    -1.677000000     4.645000000     1.051000000
H    -1.621000000     6.122000000     0.721000000
O     5.262000000    -1.898000000    -5.024000000
H     4.614000000    -2.237000000    -5.642000000
H     4.786000000    -1.818000000    -4.197000000
O    -3.338000000     5.575000000    -1.786000000
H    -3.107000000     4.933000000    -1.115000000
H    -3.672000000     5.050000000    -2.514000000
O     3.249000000     1.744000000    -7.437000000
H     2.886000000     0.907000000    -7.145000000
H     2.793000000     2.400000000    -6.910000000
O    -4.134000000    -3.552000000     3.365000000
H    -3.715000000    -2.999000000     2.705000000
H    -3.472000000    -4.207000000     3.584000000
O     3.937000000     3.292000000     1.341000000
H     3.970000000     2.431000000     1.759000000
H     3.071000000     3.633000000     1.564000000
O     5.725000000    -1.898000000     0.376000000
H     6.528000000    -1.418000000     0.579000000
H     5.074000000    -1.542000000     0.981000000
O     2.053000000     6.441000000    -0.556000000
H     2.519000000     5.611000000    -0.458000000
H     2.481000000     7.030000000     0.066000000
O    -5.968000000     1.883000000     3.699000000
H    -5.151000000     2.284000000     3.995000000
H    -5.692000000     1.097000000     3.227000000
O    -5.677000000    -0.784000000     2.882000000
H    -4.845000000    -1.165000000     2.602000000
H    -6.337000000    -1.238000000     2.360000000
O     4.433000000    -2.090000000     3.451000000
H     3.628000000    -2.535000000     3.717000000
H     4.277000000    -1.169000000     3.657000000
O    -3.298000000    -5.442000000     0.518000000
H    -3.334000000    -4.997000000     1.364000000
H    -2.365000000    -5.585000000     0.361000000
O     3.534000000    -1.694000000    -2.909000000
H     3.305000000    -2.496000000    -2.439000000
H     4.172000000    -1.259000000    -2.344000000
O     5.759000000    -4.495000000     2.652000000
H     6.582000000    -4.113000000     2.958000000
H     5.134000000    -3.770000000     2.681000000
O    -5.198000000     1.794000000    -0.425000000
H    -5.070000000     0.941000000    -0.009000000
H    -5.725000000     1.606000000    -1.201000000
O     4.810000000     2.905000000    -4.762000000
H     5.182000000     2.844000000    -5.642000000
H     4.221000000     3.658000000    -4.803000000
O    -0.863000000    -3.331000000     5.328000000
H    -1.657000000    -3.484000000     5.840000000
H    -1.157000000    -2.819000000     4.575000000
O     0.582000000     1.010000000     5.137000000
H     0.384000000     1.635000000     4.439000000
H    -0.053000000     0.304000000     5.015000000
O     1.570000000     3.324000000    -5.919000000
H     2.147000000     3.920000000    -5.440000000
H     0.893000000     3.085000000    -5.285000000
O     2.770000000    -3.944000000     5.113000000
H     3.271000000    -4.660000000     5.504000000
H     2.654000000    -3.316000000     5.826000000
O    -3.851000000    -3.864000000    -1.518000000
H    -3.000000000    -3.892000000    -1.956000000
H    -3.790000000    -4.530000000    -0.833000000
O     4.102000000     1.085000000     3.006000000
H     3.780000000     0.986000000     3.902000000
H     5.020000000     0.818000000     3.050000000
O     1.283000000     6.686000000    -4.364000000
H     0.468000000     6.237000000    -4.140000000
H     1.422000000     7.303000000    -3.646000000
O    -5.104000000     1.641000000    -4.377000000
H    -4.947000000     2.483000000    -3.948000000
H    -6.037000000     1.650000000    -4.588000000
O    -2.667000000     2.283000000     4.071000000
H    -1.915000000     2.274000000     3.479000000
H    -2.678000000     3.170000000     4.431000000
O    -1.391000000     5.576000000    -4.282000000
H    -2.101000000     5.636000000    -3.643000000
H    -1.460000000     4.687000000    -4.633000000
O     1.458000000     4.275000000     1.597000000
H     0.728000000     4.561000000     1.047000000
H     1.528000000     4.950000000     2.271000000
O     4.903000000     4.244000000    -1.142000000
H     4.806000000     3.442000000    -1.654000000
H     4.693000000     3.983000000    -0.245000000
O    -3.391000000     3.821000000     0.529000000
H    -4.004000000     3.135000000     0.264000000
H    -3.797000000     4.221000000     1.297000000
O    -7.046000000     3.128000000     1.086000000
H    -6.748000000     3.112000000     1.995000000
H    -6.385000000     2.627000000     0.608000000
O     0.540000000    -1.663000000    -3.148000000
H     1.303000000    -1.166000000    -2.854000000
H    -0.018000000    -1.725000000    -2.373000000
O    -1.242000000     2.935000000    -4.918000000
H    -0.877000000     2.051000000    -4.957000000
H    -1.872000000     2.967000000    -5.638000000
O     3.397000000    -5.965000000     2.073000000
H     4.298000000    -5.745000000     2.308000000
H     2.882000000    -5.214000000     2.369000000
O    -1.942000000    -4.845000000     3.203000000
H    -1.506000000    -3.994000000     3.257000000
H    -1.237000000    -5.483000000     3.317000000
O     6.799000000     0.376000000    -4.393000000
H     6.544000000    -0.512000000    -4.642000000
H     6.137000000     0.938000000    -4.796000000
O    -2.055000000    -0.552000000     4.484000000
H    -2.470000000     0.251000000     4.169000000
H    -2.131000000    -1.163000000     3.752000000
O    -0.152000000     0.521000000    -4.789000000
H     0.495000000     0.312000000    -5.463000000
H     0.068000000    -0.057000000    -4.058000000
O    -0.131000000     2.190000000     2.762000000
H     0.408000000     2.890000000     2.395000000
H    -0.054000000     1.473000000     2.132000000
O    -4.511000000    -0.869000000    -1.216000000
H    -4.069000000    -0.578000000    -2.014000000
H    -4.001000000    -1.622000000    -0.920000000
