161
-3049.24740
C    -0.026000000     0.330000000     1.464000000
H    -0.179000000     0.592000000     2.508000000
C    -0.922000000    -0.516000000     0.777000000
H    -1.807000000    -0.955000000     1.231000000
C    -0.755000000    -0.766000000    -0.616000000
C    -1.725000000    -1.641000000    -1.377000000
H    -1.206000000    -2.534000000    -1.733000000
H    -2.601000000    -1.887000000    -0.772000000
H    -2.162000000    -1.109000000    -2.225000000
C     0.319000000    -0.170000000    -1.293000000
H     0.343000000    -0.310000000    -2.371000000
C     1.145000000     0.642000000    -0.544000000
H     2.053000000     1.077000000    -0.954000000
C     0.974000000     0.932000000     0.807000000
C     1.914000000     1.881000000     1.525000000
O     2.830000000     2.383000000     0.885000000
O     1.799000000     2.056000000     2.691000000
O    -4.753000000    -0.461000000    -0.432000000
H    -4.643000000    -1.378000000    -0.182000000
H    -5.100000000    -0.039000000     0.354000000
O    -1.994000000     1.765000000     4.276000000
H    -1.847000000     0.832000000     4.122000000
H    -1.283000000     2.026000000     4.862000000
O    -5.547000000     0.848000000     1.912000000
H    -5.349000000     1.776000000     2.042000000
H    -5.594000000     0.487000000     2.797000000
O    -3.197000000    -4.886000000     1.441000000
H    -3.246000000    -5.767000000     1.813000000
H    -2.280000000    -4.783000000     1.188000000
O     1.058000000    -2.852000000     1.417000000
H     0.967000000    -1.961000000     1.757000000
H     0.991000000    -2.754000000     0.468000000
O    -5.667000000    -2.483000000     4.488000000
H    -5.428000000    -2.118000000     5.340000000
H    -4.829000000    -2.680000000     4.069000000
O    -3.093000000    -3.424000000     3.590000000
H    -3.319000000    -3.979000000     2.843000000
H    -2.913000000    -4.041000000     4.300000000
O     2.320000000    -4.000000000    -3.813000000
H     3.134000000    -3.535000000    -4.010000000
H     2.565000000    -4.926000000    -3.823000000
O     1.290000000     0.334000000     4.767000000
H     2.224000000     0.210000000     4.936000000
H     1.257000000     0.966000000     4.050000000
O     5.546000000    -0.359000000    -1.458000000
H     5.273000000     0.119000000    -0.674000000
H     4.947000000    -0.059000000    -2.142000000
O    -1.776000000    -1.034000000     4.134000000
H    -2.463000000    -1.694000000     4.226000000
H    -0.961000000    -1.515000000     4.281000000
O     2.070000000     6.213000000     3.353000000
H     1.700000000     6.346000000     2.480000000
H     2.596000000     5.418000000     3.271000000
O     4.052000000    -2.763000000     1.035000000
H     4.112000000    -1.811000000     0.954000000
H     3.128000000    -2.930000000     1.221000000
O     5.095000000    -0.630000000     3.092000000
H     5.709000000     0.077000000     3.289000000
H     4.931000000    -0.550000000     2.153000000
O     5.243000000     1.237000000     0.759000000
H     5.992000000     1.827000000     0.845000000
H     4.478000000     1.809000000     0.825000000
O    -3.663000000    -0.345000000    -4.270000000
H    -3.191000000     0.068000000    -3.547000000
H    -4.103000000    -1.096000000    -3.872000000
O    -4.967000000    -3.271000000     0.187000000
H    -4.311000000    -3.816000000     0.620000000
H    -5.329000000    -3.831000000    -0.499000000
O     1.078000000    -5.865000000     1.583000000
H     1.838000000    -5.968000000     2.155000000
H     1.099000000    -4.944000000     1.321000000
O     2.107000000     4.427000000    -2.881000000
H     2.538000000     3.954000000    -2.170000000
H     2.808000000     4.611000000    -3.507000000
O     1.541000000     0.157000000    -4.940000000
H     0.977000000    -0.607000000    -4.824000000
H     0.947000000     0.905000000    -4.879000000
O     0.657000000    -2.278000000     4.427000000
H     1.443000000    -2.747000000     4.709000000
H     0.961000000    -1.389000000     4.246000000
O     4.364000000     0.940000000    -3.623000000
H     4.234000000     1.653000000    -2.998000000
H     3.482000000     0.725000000    -3.928000000
O    -6.909000000     0.091000000    -2.266000000
H    -6.431000000     0.251000000    -3.079000000
H    -6.237000000     0.108000000    -1.585000000
O     0.304000000    -4.717000000    -5.679000000
H     0.554000000    -4.395000000    -6.545000000
H     1.038000000    -4.478000000    -5.114000000
O    -5.589000000     1.604000000    -4.393000000
H    -4.785000000     1.089000000    -4.461000000
H    -5.528000000     2.237000000    -5.109000000
O    -0.900000000     5.767000000     0.303000000
H    -0.951000000     5.191000000    -0.459000000
H    -1.131000000     5.207000000     1.043000000
O    -2.379000000     4.762000000     4.895000000
H    -1.856000000     5.510000000     4.609000000
H    -2.445000000     4.206000000     4.118000000
O     0.059000000     2.766000000    -4.419000000
H     0.621000000     3.392000000    -3.963000000
H     0.150000000     2.993000000    -5.345000000
O     3.750000000     4.465000000     2.099000000
H     3.247000000     3.673000000     1.908000000
H     3.921000000     4.852000000     1.241000000
O     6.973000000     2.967000000     1.598000000
H     7.764000000     2.676000000     1.144000000
H     7.082000000     3.914000000     1.686000000
O     0.094000000    -0.266000000     7.441000000
H     0.739000000    -0.857000000     7.831000000
H     0.219000000    -0.363000000     6.497000000
O    -2.515000000    -2.156000000    -6.546000000
H    -3.032000000    -1.468000000    -6.126000000
H    -1.986000000    -1.695000000    -7.196000000
O     5.341000000     5.371000000     3.993000000
H     5.114000000     4.710000000     3.339000000
H     4.749000000     5.197000000     4.725000000
O     1.528000000    -2.659000000    -1.392000000
H     1.841000000    -1.768000000    -1.547000000
H     1.595000000    -3.089000000    -2.244000000
O    -5.942000000    -4.958000000    -1.581000000
H    -5.655000000    -5.526000000    -2.296000000
H    -6.440000000    -4.264000000    -2.013000000
O    -2.845000000     1.531000000     0.871000000
H    -3.554000000     1.126000000     0.373000000
H    -2.388000000     0.796000000     1.279000000
O    -1.438000000     3.423000000    -0.901000000
H    -0.750000000     2.815000000    -1.172000000
H    -1.814000000     3.025000000    -0.115000000
O     5.759000000     4.947000000    -0.441000000
H     6.509000000     5.423000000    -0.083000000
H     5.047000000     5.587000000    -0.441000000
O     0.043000000     2.789000000     7.013000000
H     0.273000000     1.887000000     7.238000000
H     0.367000000     2.903000000     6.119000000
O     3.658000000    -0.857000000     5.426000000
H     4.290000000    -0.682000000     6.123000000
H     4.187000000    -0.906000000     4.630000000
O    -2.616000000    -5.835000000    -2.607000000
H    -2.601000000    -5.235000000    -3.353000000
H    -1.856000000    -6.401000000    -2.740000000
O    -4.613000000    -2.410000000    -2.930000000
H    -5.514000000    -2.729000000    -2.977000000
H    -4.334000000    -2.612000000    -2.036000000
O    -7.565000000    -2.656000000     0.688000000
H    -6.628000000    -2.849000000     0.654000000
H    -7.846000000    -2.671000000    -0.227000000
O    -2.747000000     4.271000000     1.958000000
H    -3.619000000     4.517000000     1.651000000
H    -2.701000000     3.325000000     1.820000000
O    -2.536000000     2.238000000    -3.640000000
H    -1.624000000     2.286000000    -3.928000000
H    -2.576000000     2.812000000    -2.875000000
O     1.157000000     3.499000000     4.711000000
H     1.394000000     4.388000000     4.447000000
H     1.494000000     2.943000000     4.008000000
O     3.810000000     2.828000000    -1.509000000
H     4.698000000     3.172000000    -1.404000000
H     3.502000000     2.685000000    -0.614000000
O    -2.514000000    -4.648000000    -5.267000000
H    -2.698000000    -3.785000000    -5.638000000
H    -1.561000000    -4.728000000    -5.307000000
