161
-3057.22544
C     0.389000000     0.368000000     1.382000000
H     0.616000000     0.735000000     2.380000000
C    -0.871000000     0.465000000     0.887000000
H    -1.612000000     0.907000000     1.548000000
C    -1.165000000    -0.033000000    -0.356000000
C    -2.509000000     0.179000000    -1.021000000
H    -3.002000000    -0.765000000    -1.263000000
H    -3.252000000     0.650000000    -0.373000000
H    -2.469000000     0.747000000    -1.953000000
C    -0.129000000    -0.513000000    -1.157000000
H    -0.357000000    -0.835000000    -2.170000000
C     1.173000000    -0.504000000    -0.737000000
H     1.985000000    -0.748000000    -1.417000000
C     1.439000000    -0.101000000     0.584000000
C     2.875000000    -0.193000000     1.114000000
O     3.691000000    -0.751000000     0.438000000
O     3.204000000     0.387000000     2.116000000
O    -0.207000000     0.736000000     6.112000000
H    -0.437000000     1.417000000     5.480000000
H     0.697000000     0.506000000     5.897000000
O     3.609000000     3.358000000    -0.098000000
H     3.230000000     4.093000000    -0.580000000
H     3.150000000     3.361000000     0.743000000
O     0.410000000    -3.673000000    -0.030000000
H     1.201000000    -3.233000000    -0.341000000
H    -0.204000000    -2.962000000     0.152000000
O     5.540000000     2.300000000     4.242000000
H     5.818000000     2.675000000     5.078000000
H     6.041000000     1.488000000     4.165000000
O     4.016000000    -0.601000000    -3.599000000
H     4.056000000    -1.419000000    -4.094000000
H     4.710000000    -0.059000000    -3.975000000
O    -2.746000000     6.225000000    -1.002000000
H    -2.765000000     5.275000000    -1.117000000
H    -2.374000000     6.353000000    -0.129000000
O     4.122000000    -3.127000000    -4.526000000
H     4.877000000    -3.245000000    -5.102000000
H     3.376000000    -3.053000000    -5.122000000
O     6.904000000    -1.463000000     2.112000000
H     7.453000000    -1.014000000     2.755000000
H     7.475000000    -1.586000000     1.354000000
O     2.370000000     0.169000000     4.990000000
H     2.521000000     0.194000000     4.045000000
H     2.687000000     1.016000000     5.305000000
O     2.176000000     2.927000000    -5.561000000
H     1.921000000     2.332000000    -4.856000000
H     2.460000000     3.723000000    -5.112000000
O    -4.123000000    -5.047000000    -0.643000000
H    -4.056000000    -4.687000000    -1.528000000
H    -3.919000000    -4.309000000    -0.068000000
O     3.452000000     2.997000000     2.625000000
H     3.531000000     2.122000000     2.246000000
H     4.016000000     2.974000000     3.399000000
O     8.055000000    -1.504000000    -0.511000000
H     8.719000000    -1.081000000    -1.054000000
H     7.232000000    -1.347000000    -0.974000000
O     5.188000000    -1.308000000     6.393000000
H     6.049000000    -1.718000000     6.474000000
H     4.947000000    -1.437000000     5.476000000
O     7.139000000     3.429000000     1.383000000
H     6.548000000     3.383000000     2.135000000
H     6.752000000     2.837000000     0.738000000
O     0.336000000     3.998000000    -2.604000000
H    -0.361000000     4.451000000    -3.079000000
H    -0.070000000     3.731000000    -1.780000000
O     5.636000000    -4.115000000     1.048000000
H     4.763000000    -4.000000000     1.422000000
H     5.996000000    -3.229000000     1.001000000
O    -5.473000000    -2.785000000    -2.205000000
H    -5.893000000    -3.556000000    -2.587000000
H    -5.752000000    -2.059000000    -2.762000000
O    -0.427000000     0.380000000    -4.782000000
H     0.085000000     0.621000000    -4.011000000
H     0.193000000     0.436000000    -5.509000000
O    -3.414000000    -3.058000000     1.354000000
H    -2.601000000    -3.083000000     1.858000000
H    -4.030000000    -3.581000000     1.867000000
O     1.819000000     1.281000000    -3.354000000
H     1.941000000     1.629000000    -2.471000000
H     2.572000000     0.706000000    -3.491000000
O     3.470000000    -3.949000000     3.084000000
H     3.743000000    -4.480000000     3.832000000
H     3.782000000    -3.068000000     3.289000000
O     5.797000000     2.570000000    -1.706000000
H     6.193000000     1.698000000    -1.686000000
H     5.194000000     2.576000000    -0.963000000
O    -4.583000000     1.872000000    -4.406000000
H    -4.667000000     2.099000000    -3.480000000
H    -5.117000000     2.524000000    -4.861000000
O     0.396000000    -1.816000000     4.709000000
H     1.018000000    -1.113000000     4.902000000
H     0.743000000    -2.576000000     5.175000000
O    -1.903000000     2.650000000    -5.611000000
H    -1.153000000     2.055000000    -5.615000000
H    -2.628000000     2.120000000    -5.281000000
O     1.825000000    -2.587000000    -6.129000000
H     0.925000000    -2.770000000    -6.400000000
H     1.866000000    -1.634000000    -6.061000000
O    -4.572000000     2.794000000    -1.373000000
H    -5.307000000     2.350000000    -0.950000000
H    -4.677000000     3.714000000    -1.131000000
O     1.310000000     3.403000000     4.441000000
H     2.154000000     3.370000000     3.991000000
H     1.021000000     4.310000000     4.343000000
O    -3.080000000     0.519000000     3.834000000
H    -2.223000000     0.918000000     3.983000000
H    -2.882000000    -0.364000000     3.521000000
O    -1.876000000    -1.933000000    -4.580000000
H    -1.574000000    -2.516000000    -5.276000000
H    -1.332000000    -1.150000000    -4.669000000
O     5.957000000     0.804000000     0.375000000
H     5.139000000     0.308000000     0.415000000
H     6.592000000     0.258000000     0.838000000
O    -1.680000000    -2.806000000     3.254000000
H    -0.839000000    -2.350000000     3.201000000
H    -1.846000000    -2.893000000     4.193000000
O    -3.076000000     3.458000000     1.979000000
H    -2.492000000     2.999000000     2.583000000
H    -3.829000000     2.875000000     1.885000000
O    -1.225000000     4.981000000    -4.381000000
H    -1.960000000     5.576000000    -4.532000000
H    -1.513000000     4.147000000    -4.751000000
O     4.610000000    -1.562000000     3.535000000
H     5.483000000    -1.481000000     3.150000000
H     4.102000000    -0.862000000     3.125000000
O     4.578000000     5.796000000     2.331000000
H     4.037000000     6.157000000     3.033000000
H     4.235000000     4.913000000     2.194000000
O    -5.375000000    -1.472000000     0.167000000
H    -5.141000000    -1.882000000    -0.666000000
H    -4.892000000    -1.973000000     0.824000000
O    -1.569000000     3.484000000    -0.734000000
H    -1.600000000     3.015000000     0.100000000
H    -2.346000000     3.183000000    -1.206000000
O     0.791000000     4.512000000     0.784000000
H     0.022000000     4.916000000     0.382000000
H     0.450000000     4.067000000     1.559000000
O    -6.401000000     0.889000000    -0.296000000
H    -6.805000000     0.487000000    -1.065000000
H    -5.598000000     0.387000000    -0.157000000
O    -1.212000000    -5.006000000    -1.872000000
H    -0.614000000    -4.610000000    -1.238000000
H    -1.801000000    -4.294000000    -2.123000000
O    -5.058000000     1.645000000     2.299000000
H    -4.506000000     1.496000000     3.068000000
H    -5.295000000     0.767000000     2.001000000
O     2.877000000    -3.586000000    -1.754000000
H     2.740000000    -3.012000000    -2.508000000
H     3.532000000    -3.133000000    -1.224000000
O    -0.987000000     2.324000000     3.549000000
H    -1.363000000     3.087000000     3.989000000
H    -0.041000000     2.455000000     3.610000000
O    -5.369000000    -0.655000000    -3.853000000
H    -5.745000000    -0.948000000    -4.684000000
H    -4.780000000     0.059000000    -4.095000000
O     5.246000000    -1.981000000    -1.262000000
H     5.027000000    -1.404000000    -1.994000000
H     4.742000000    -1.636000000    -0.525000000
O    -2.789000000    -3.178000000    -2.557000000
H    -3.647000000    -2.756000000    -2.519000000
H    -2.315000000    -2.696000000    -3.235000000
