161
-3039.99262
C    -0.989000000    -0.953000000     0.416000000
H    -1.673000000    -1.764000000     0.651000000
C     0.322000000    -1.262000000     0.140000000
H     0.697000000    -2.278000000     0.223000000
C     1.191000000    -0.220000000    -0.223000000
C     2.720000000    -0.539000000    -0.459000000
H     2.841000000    -1.621000000    -0.549000000
H     3.083000000    -0.089000000    -1.385000000
H     3.309000000    -0.109000000     0.354000000
C     0.702000000     1.028000000    -0.295000000
H     1.385000000     1.813000000    -0.607000000
C    -0.687000000     1.337000000    -0.154000000
H    -1.096000000     2.333000000    -0.308000000
C    -1.518000000     0.327000000     0.280000000
C    -3.016000000     0.584000000     0.524000000
O    -3.594000000     1.641000000     0.211000000
O    -3.670000000    -0.232000000     1.185000000
O     0.673000000    -6.262000000     1.484000000
H     0.039000000    -5.570000000     1.300000000
H     0.228000000    -7.070000000     1.225000000
O    -5.633000000     2.482000000     1.312000000
H    -5.897000000     1.667000000     1.738000000
H    -4.828000000     2.259000000     0.845000000
O    -7.028000000    -1.999000000    -1.111000000
H    -7.934000000    -2.065000000    -0.810000000
H    -6.852000000    -1.059000000    -1.139000000
O    -5.169000000    -0.920000000    -3.753000000
H    -5.291000000     0.030000000    -3.774000000
H    -6.053000000    -1.276000000    -3.835000000
O     5.152000000    -2.342000000    -1.569000000
H     5.647000000    -1.554000000    -1.344000000
H     4.800000000    -2.162000000    -2.441000000
O    -7.006000000     3.544000000     3.701000000
H    -6.380000000     4.029000000     4.239000000
H    -6.534000000     3.367000000     2.887000000
O    -2.461000000    -3.746000000    -1.730000000
H    -2.947000000    -4.553000000    -1.898000000
H    -3.043000000    -3.226000000    -1.176000000
O     2.257000000    -5.709000000    -2.130000000
H     1.534000000    -5.314000000    -2.617000000
H     1.932000000    -6.573000000    -1.876000000
O    -5.093000000    -4.926000000     0.272000000
H    -5.948000000    -4.803000000     0.684000000
H    -4.856000000    -4.057000000    -0.051000000
O    -1.771000000    -1.026000000     5.497000000
H    -2.255000000    -1.415000000     4.769000000
H    -0.867000000    -0.977000000     5.185000000
O    -4.189000000     5.322000000     1.775000000
H    -3.817000000     5.576000000     0.931000000
H    -3.779000000     4.480000000     1.974000000
O    -6.527000000     0.211000000     2.240000000
H    -6.748000000    -0.459000000     2.887000000
H    -5.669000000    -0.052000000     1.907000000
O     3.058000000     2.976000000     4.982000000
H     3.607000000     2.574000000     4.309000000
H     3.669000000     3.478000000     5.522000000
O    -2.685000000     3.278000000     2.211000000
H    -3.025000000     2.709000000     1.520000000
H    -1.733000000     3.203000000     2.137000000
O     3.402000000    -6.862000000     0.611000000
H     2.450000000    -6.762000000     0.600000000
H     3.738000000    -5.969000000     0.529000000
O     2.382000000    -3.695000000     2.280000000
H     2.647000000    -3.997000000     1.411000000
H     2.362000000    -4.489000000     2.814000000
O    -6.620000000     2.103000000    -3.348000000
H    -6.320000000     2.992000000    -3.537000000
H    -6.945000000     1.777000000    -4.187000000
O     1.567000000    -2.303000000    -3.549000000
H     1.279000000    -1.560000000    -3.018000000
H     1.047000000    -2.240000000    -4.350000000
O     3.013000000     1.920000000    -4.833000000
H     3.599000000     2.666000000    -4.704000000
H     2.225000000     2.145000000    -4.339000000
O     3.525000000    -4.117000000    -0.218000000
H     2.738000000    -4.139000000    -0.762000000
H     4.132000000    -3.553000000    -0.697000000
O     6.342000000    -1.117000000     3.883000000
H     6.152000000    -1.618000000     4.676000000
H     7.295000000    -1.028000000     3.879000000
O     3.552000000    -1.400000000     3.208000000
H     4.495000000    -1.294000000     3.088000000
H     3.306000000    -2.086000000     2.588000000
O    -0.126000000     5.447000000    -2.519000000
H    -1.062000000     5.644000000    -2.561000000
H     0.302000000     6.298000000    -2.617000000
O    -2.980000000    -6.216000000     1.620000000
H    -3.541000000    -5.589000000     1.163000000
H    -3.545000000    -6.599000000     2.291000000
O     2.172000000     2.290000000     2.099000000
H     1.926000000     2.867000000     2.821000000
H     1.345000000     1.902000000     1.811000000
O    -3.698000000    -1.444000000     3.557000000
H    -4.621000000    -1.271000000     3.744000000
H    -3.504000000    -0.905000000     2.789000000
O     2.550000000    -0.499000000    -6.163000000
H     3.060000000    -0.223000000    -6.925000000
H     2.673000000     0.203000000    -5.524000000
O    -0.294000000    -3.300000000     3.911000000
H     0.167000000    -2.772000000     3.260000000
H     0.386000000    -3.853000000     4.296000000
O    -2.847000000    -2.480000000    -4.045000000
H    -3.664000000    -2.048000000    -3.794000000
H    -2.531000000    -2.883000000    -3.236000000
O     4.129000000     3.422000000    -0.758000000
H     3.447000000     3.443000000    -0.087000000
H     3.826000000     4.037000000    -1.426000000
O    -3.048000000     3.118000000    -2.063000000
H    -3.242000000     2.494000000    -1.363000000
H    -3.112000000     2.603000000    -2.867000000
O     6.513000000     3.339000000     3.252000000
H     6.290000000     2.628000000     2.651000000
H     7.446000000     3.492000000     3.105000000
O    -6.154000000     0.645000000    -0.999000000
H    -6.276000000     1.219000000    -1.755000000
H    -5.293000000     0.883000000    -0.655000000
O     5.890000000     0.910000000    -0.381000000
H     5.450000000     1.744000000    -0.546000000
H     6.675000000     0.942000000    -0.926000000
O     0.617000000    -0.670000000     4.088000000
H     1.538000000    -0.812000000     4.303000000
H     0.631000000    -0.290000000     3.210000000
O    -4.247000000    -2.440000000    -0.061000000
H    -4.015000000    -1.827000000     0.637000000
H    -5.164000000    -2.248000000    -0.254000000
O    -7.787000000     4.336000000     0.316000000
H    -7.076000000     3.769000000     0.616000000
H    -8.583000000     3.916000000     0.643000000
O     0.306000000    -4.671000000    -3.435000000
H     0.757000000    -3.863000000    -3.681000000
H    -0.595000000    -4.399000000    -3.260000000
O    -2.917000000     5.815000000    -2.572000000
H    -3.007000000     5.621000000    -3.505000000
H    -2.846000000     4.957000000    -2.155000000
O    -2.945000000     2.890000000     5.037000000
H    -2.695000000     2.861000000     4.113000000
H    -3.699000000     3.478000000     5.063000000
O     0.816000000     3.146000000    -3.475000000
H     0.466000000     2.564000000    -2.800000000
H     0.554000000     4.023000000    -3.195000000
O    -6.664000000    -1.917000000     3.731000000
H    -6.467000000    -2.846000000     3.852000000
H    -7.596000000    -1.842000000     3.938000000
O    -3.003000000    -4.118000000     3.921000000
H    -3.375000000    -3.240000000     3.834000000
H    -2.061000000    -3.971000000     4.005000000
O     4.214000000    -2.305000000    -4.121000000
H     4.467000000    -1.900000000    -4.950000000
H     3.306000000    -2.033000000    -3.988000000
O     0.082000000     4.678000000     1.830000000
H     0.895000000     5.175000000     1.743000000
H    -0.585000000     5.236000000     1.431000000
O     4.995000000     1.402000000     2.126000000
H     4.133000000     1.639000000     1.784000000
H     5.494000000     1.133000000     1.354000000
O     4.192000000    -1.589000000     5.683000000
H     3.843000000    -1.573000000     4.792000000
H     3.618000000    -1.001000000     6.175000000
O    -8.951000000     0.494000000     0.772000000
H    -8.047000000     0.360000000     1.056000000
H    -9.044000000     1.444000000     0.708000000
