161
-3035.23329
C    -0.157000000     0.548000000     1.336000000
H    -0.520000000     0.978000000     2.266000000
C    -0.997000000    -0.291000000     0.616000000
H    -2.001000000    -0.467000000     0.994000000
C    -0.727000000    -0.797000000    -0.615000000
C    -1.841000000    -1.495000000    -1.512000000
H    -1.462000000    -2.481000000    -1.788000000
H    -2.773000000    -1.680000000    -0.974000000
H    -2.109000000    -0.933000000    -2.409000000
C     0.470000000    -0.397000000    -1.125000000
H     0.741000000    -0.706000000    -2.131000000
C     1.463000000     0.277000000    -0.390000000
H     2.376000000     0.607000000    -0.880000000
C     1.067000000     0.794000000     0.862000000
C     1.909000000     1.738000000     1.659000000
O     3.132000000     1.888000000     1.489000000
O     1.424000000     2.410000000     2.605000000
O    -2.289000000    -5.880000000     1.925000000
H    -2.196000000    -4.938000000     1.779000000
H    -2.133000000    -5.994000000     2.862000000
O    -0.430000000     2.819000000     5.949000000
H    -0.892000000     2.113000000     6.402000000
H    -0.163000000     3.417000000     6.648000000
O    -3.141000000    -3.300000000    -4.659000000
H    -3.964000000    -3.223000000    -4.175000000
H    -2.535000000    -3.704000000    -4.038000000
O     6.260000000     3.861000000     2.108000000
H     5.431000000     4.292000000     2.318000000
H     6.413000000     3.267000000     2.842000000
O     4.389000000     0.531000000    -4.512000000
H     4.809000000     0.118000000    -5.266000000
H     4.715000000     0.041000000    -3.757000000
O     4.994000000     0.503000000     2.890000000
H     4.467000000     1.189000000     2.480000000
H     5.615000000     0.977000000     3.444000000
O    -0.761000000     3.643000000     3.311000000
H     0.078000000     3.494000000     2.875000000
H    -0.592000000     3.443000000     4.232000000
O     3.540000000     2.533000000     7.222000000
H     4.052000000     1.727000000     7.159000000
H     2.897000000     2.464000000     6.516000000
O     2.286000000    -0.376000000     6.270000000
H     1.945000000     0.481000000     6.013000000
H     3.212000000    -0.220000000     6.455000000
O    -1.384000000     6.403000000     3.137000000
H    -2.334000000     6.294000000     3.168000000
H    -1.050000000     5.534000000     2.916000000
O     0.773000000     6.590000000     0.128000000
H    -0.153000000     6.827000000     0.081000000
H     0.849000000     5.808000000    -0.419000000
O     0.376000000    -3.347000000     1.237000000
H    -0.173000000    -3.562000000     1.992000000
H     0.553000000    -2.411000000     1.329000000
O     5.270000000    -0.147000000    -1.846000000
H     5.511000000    -0.664000000    -1.077000000
H     5.411000000     0.761000000    -1.578000000
O    -3.177000000    -0.287000000    -5.375000000
H    -2.991000000    -1.181000000    -5.090000000
H    -3.896000000    -0.001000000    -4.811000000
O    -1.229000000     1.821000000    -2.482000000
H    -0.903000000     0.978000000    -2.166000000
H    -1.489000000     2.290000000    -1.689000000
O     5.912000000    -2.955000000    -1.758000000
H     5.022000000    -2.815000000    -1.433000000
H     5.886000000    -2.650000000    -2.665000000
O    -3.408000000    -1.562000000     3.849000000
H    -3.578000000    -0.839000000     4.453000000
H    -3.569000000    -2.350000000     4.367000000
O     3.339000000     4.813000000     2.380000000
H     3.168000000     3.926000000     2.062000000
H     2.538000000     5.060000000     2.844000000
O     2.633000000     2.121000000    -2.835000000
H     3.085000000     1.600000000    -3.499000000
H     3.324000000     2.386000000    -2.228000000
O    -0.190000000    -5.285000000    -0.704000000
H    -0.174000000    -4.420000000    -0.294000000
H    -0.947000000    -5.721000000    -0.316000000
O    -4.142000000     2.730000000    -3.435000000
H    -4.194000000     3.004000000    -4.350000000
H    -3.216000000     2.534000000    -3.295000000
O     4.026000000    -3.400000000     1.505000000
H     3.904000000    -2.727000000     0.834000000
H     3.804000000    -2.961000000     2.326000000
O     3.204000000    -1.399000000     3.862000000
H     2.633000000    -0.986000000     4.510000000
H     3.907000000    -0.765000000     3.724000000
O     4.520000000     3.297000000    -4.489000000
H     4.746000000     3.558000000    -5.382000000
H     4.472000000     2.342000000    -4.524000000
O    -3.942000000    -5.873000000    -2.607000000
H    -3.596000000    -6.743000000    -2.803000000
H    -4.047000000    -5.865000000    -1.656000000
O    -1.695000000     2.835000000    -0.205000000
H    -1.331000000     2.301000000     0.501000000
H    -2.285000000     3.446000000     0.236000000
O     5.889000000    -1.192000000     0.721000000
H     5.835000000    -2.146000000     0.668000000
H     5.498000000    -0.977000000     1.568000000
O     2.352000000    -2.402000000    -5.196000000
H     1.775000000    -1.771000000    -4.766000000
H     2.468000000    -2.057000000    -6.081000000
O     5.106000000     2.194000000    -0.398000000
H     4.547000000     2.076000000     0.370000000
H     5.359000000     3.116000000    -0.370000000
O     0.411000000    -2.320000000     5.683000000
H     1.027000000    -1.590000000     5.754000000
H     0.738000000    -2.970000000     6.305000000
O    -1.332000000    -3.257000000     3.619000000
H    -0.860000000    -2.678000000     4.218000000
H    -2.176000000    -2.827000000     3.485000000
O    -5.497000000     1.235000000     2.156000000
H    -5.178000000     1.914000000     2.750000000
H    -5.764000000     0.519000000     2.732000000
O     7.416000000     1.126000000     0.888000000
H     6.887000000     0.343000000     1.037000000
H     6.795000000     1.774000000     0.555000000
O     0.690000000    -5.935000000    -5.126000000
H     0.535000000    -5.094000000    -4.695000000
H    -0.067000000    -6.470000000    -4.888000000
O     3.507000000     7.127000000     0.898000000
H     2.597000000     7.212000000     0.613000000
H     3.505000000     6.371000000     1.485000000
O    -5.474000000    -3.512000000    -3.289000000
H    -5.375000000    -4.038000000    -2.496000000
H    -6.375000000    -3.671000000    -3.571000000
O     0.422000000    -0.339000000    -4.718000000
H    -0.229000000     0.317000000    -4.469000000
H     1.013000000     0.124000000    -5.312000000
O     1.906000000     2.063000000     5.265000000
H     1.051000000     2.493000000     5.240000000
H     2.124000000     1.911000000     4.345000000
O    -4.241000000    -2.079000000     1.152000000
H    -4.111000000    -1.195000000     0.809000000
H    -3.908000000    -2.040000000     2.048000000
O     0.644000000     3.999000000    -1.137000000
H     0.980000000     3.359000000    -1.765000000
H    -0.175000000     3.616000000    -0.821000000
O    -0.995000000    -2.320000000    -7.088000000
H    -0.062000000    -2.131000000    -6.994000000
H    -1.376000000    -2.073000000    -6.246000000
O    -1.282000000    -4.619000000    -3.248000000
H    -1.596000000    -5.495000000    -3.474000000
H    -0.973000000    -4.701000000    -2.346000000
O    -4.300000000     0.489000000    -0.064000000
H    -4.715000000     0.795000000     0.743000000
H    -3.620000000     1.138000000    -0.245000000
O     1.763000000    -3.619000000    -2.644000000
H     1.913000000    -3.560000000    -3.587000000
H     1.541000000    -4.538000000    -2.494000000
O    -5.526000000    -3.873000000    -0.503000000
H    -4.860000000    -3.364000000    -0.042000000
H    -6.339000000    -3.687000000    -0.032000000
O    -3.480000000     2.823000000     3.829000000
H    -3.186000000     2.146000000     4.439000000
H    -2.708000000     3.018000000     3.297000000
O    -5.142000000    -0.742000000    -2.415000000
H    -5.436000000    -1.534000000    -1.965000000
H    -4.678000000    -0.243000000    -1.742000000
O     3.222000000    -2.411000000    -0.806000000
H     2.649000000    -2.882000000    -1.412000000
H     2.858000000    -1.526000000    -0.772000000
