161
-3039.00292
C    -0.938000000     0.258000000     1.115000000
H    -1.775000000     0.413000000     1.791000000
C    -1.102000000    -0.714000000     0.152000000
H    -2.009000000    -1.312000000     0.116000000
C    -0.080000000    -0.908000000    -0.777000000
C    -0.238000000    -2.035000000    -1.803000000
H     0.688000000    -2.220000000    -2.352000000
H    -0.595000000    -2.964000000    -1.355000000
H    -0.972000000    -1.812000000    -2.580000000
C     1.024000000    -0.028000000    -0.808000000
H     1.696000000    -0.163000000    -1.652000000
C     1.140000000     0.963000000     0.163000000
H     1.956000000     1.674000000     0.068000000
C     0.146000000     1.110000000     1.143000000
C     0.300000000     2.273000000     2.003000000
O     1.348000000     2.977000000     1.988000000
O    -0.597000000     2.484000000     2.789000000
O    -2.198000000     5.971000000     5.102000000
H    -2.092000000     6.770000000     5.619000000
H    -1.977000000     5.263000000     5.706000000
O    -3.938000000    -2.906000000    -2.245000000
H    -4.520000000    -2.641000000    -1.533000000
H    -4.491000000    -3.430000000    -2.825000000
O    -1.698000000     2.673000000    -1.157000000
H    -2.006000000     3.261000000    -0.467000000
H    -1.592000000     1.827000000    -0.721000000
O     0.117000000     1.190000000     7.214000000
H     0.529000000     1.813000000     6.616000000
H    -0.682000000     0.917000000     6.762000000
O     4.126000000     1.540000000    -3.419000000
H     3.635000000     2.106000000    -4.015000000
H     4.136000000     0.686000000    -3.853000000
O     6.539000000     3.576000000     2.354000000
H     5.672000000     3.327000000     2.675000000
H     6.403000000     4.424000000     1.931000000
O     0.035000000    -3.501000000    -5.071000000
H    -0.360000000    -2.687000000    -4.759000000
H     0.286000000    -3.314000000    -5.976000000
O    -5.138000000    -2.601000000     4.536000000
H    -4.808000000    -1.855000000     4.035000000
H    -5.627000000    -2.207000000     5.258000000
O    -5.162000000     0.232000000     3.936000000
H    -4.918000000     0.625000000     4.774000000
H    -5.955000000     0.699000000     3.674000000
O    -2.673000000     3.491000000     3.880000000
H    -1.864000000     3.160000000     3.489000000
H    -2.591000000     4.444000000     3.827000000
O     0.953000000    -5.983000000    -4.838000000
H     0.537000000    -6.459000000    -4.120000000
H     0.471000000    -5.158000000    -4.890000000
O     3.694000000     3.528000000     3.121000000
H     3.337000000     4.202000000     3.700000000
H     2.942000000     3.231000000     2.608000000
O     4.267000000    -0.364000000     2.818000000
H     3.881000000    -0.195000000     3.678000000
H     4.313000000     0.497000000     2.403000000
O     2.388000000     0.395000000     4.918000000
H     2.121000000     1.311000000     5.000000000
H     1.594000000    -0.063000000     4.645000000
O     2.446000000     4.945000000     0.137000000
H     2.104000000     4.331000000     0.787000000
H     2.029000000     4.683000000    -0.684000000
O     1.399000000    -0.133000000    -4.485000000
H     0.953000000     0.710000000    -4.564000000
H     0.692000000    -0.777000000    -4.470000000
O    -3.884000000    -0.518000000    -3.836000000
H    -3.725000000    -1.406000000    -3.515000000
H    -3.948000000     0.015000000    -3.044000000
O    -4.853000000     3.085000000     0.829000000
H    -5.370000000     3.762000000     0.392000000
H    -4.997000000     3.239000000     1.762000000
O     3.909000000     0.060000000    -5.812000000
H     2.960000000     0.046000000    -5.685000000
H     4.058000000     0.784000000    -6.420000000
O    -3.626000000    -1.237000000     2.298000000
H    -4.084000000    -1.038000000     1.481000000
H    -3.780000000    -0.471000000     2.851000000
O     3.845000000     6.600000000     2.723000000
H     3.781000000     7.418000000     3.217000000
H     3.164000000     6.670000000     2.055000000
O    -0.598000000    -7.042000000    -2.779000000
H    -1.339000000    -7.646000000    -2.831000000
H    -0.989000000    -6.204000000    -2.532000000
O    -2.253000000    -3.807000000     1.310000000
H    -2.629000000    -2.932000000     1.409000000
H    -2.582000000    -4.114000000     0.465000000
O     1.820000000    -4.953000000    -1.473000000
H     1.622000000    -4.780000000    -2.394000000
H     1.332000000    -4.283000000    -0.994000000
O     2.224000000     5.184000000     4.904000000
H     2.576000000     5.326000000     5.783000000
H     2.380000000     6.010000000     4.447000000
O    -1.451000000     3.889000000     6.612000000
H    -0.716000000     3.645000000     6.049000000
H    -1.056000000     4.029000000     7.473000000
O     4.480000000    -1.702000000    -0.029000000
H     4.834000000    -1.270000000     0.749000000
H     4.539000000    -1.040000000    -0.718000000
O    -0.110000000     5.350000000     2.470000000
H    -0.542000000     5.491000000     1.627000000
H     0.125000000     4.422000000     2.467000000
O    -4.151000000     1.948000000     5.838000000
H    -3.596000000     2.406000000     5.208000000
H    -4.239000000     2.560000000     6.569000000
O     1.188000000     3.289000000    -1.757000000
H     1.135000000     2.773000000    -2.562000000
H     0.303000000     3.256000000    -1.393000000
O     1.935000000    -3.019000000     0.331000000
H     2.870000000    -2.848000000     0.444000000
H     1.525000000    -2.157000000     0.390000000
O     0.509000000    -1.792000000     4.471000000
H     0.616000000    -2.348000000     3.699000000
H    -0.417000000    -1.549000000     4.465000000
O    -1.116000000    -1.131000000    -5.121000000
H    -1.300000000    -1.177000000    -6.060000000
H    -1.570000000    -0.342000000    -4.826000000
O     5.183000000     4.928000000    -0.255000000
H     4.262000000     4.852000000    -0.007000000
H     5.171000000     5.416000000    -1.078000000
O     4.752000000     1.383000000     0.136000000
H     4.243000000     1.475000000    -0.669000000
H     5.155000000     2.242000000     0.264000000
O    -2.540000000    -5.421000000    -4.738000000
H    -2.050000000    -6.124000000    -5.163000000
H    -1.929000000    -4.684000000    -4.712000000
O     1.932000000     7.560000000     0.344000000
H     1.840000000     6.611000000     0.431000000
H     1.448000000     7.775000000    -0.454000000
O    -5.342000000     3.834000000     3.542000000
H    -4.431000000     3.541000000     3.557000000
H    -5.325000000     4.690000000     3.970000000
O     0.240000000     7.517000000     4.551000000
H    -0.630000000     7.768000000     4.861000000
H     0.083000000     6.772000000     3.972000000
O     1.017000000     2.598000000     5.083000000
H     1.453000000     3.441000000     4.960000000
H     0.553000000     2.446000000     4.259000000
O    -5.488000000    -3.806000000     0.426000000
H    -5.873000000    -4.035000000     1.272000000
H    -5.277000000    -4.649000000     0.023000000
O     4.562000000    -4.477000000    -1.180000000
H     4.446000000    -3.536000000    -1.042000000
H     3.693000000    -4.790000000    -1.434000000
O    -5.111000000    -1.151000000     0.067000000
H    -5.785000000    -0.804000000     0.652000000
H    -5.202000000    -2.102000000     0.135000000
O    -2.341000000    -4.901000000    -1.581000000
H    -2.867000000    -4.137000000    -1.815000000
H    -2.972000000    -5.526000000    -1.223000000
O    -4.376000000     1.014000000    -1.334000000
H    -4.470000000     1.783000000    -0.772000000
H    -4.549000000     0.271000000    -0.756000000
O     4.932000000     2.297000000     5.433000000
H     5.517000000     3.030000000     5.625000000
H     4.234000000     2.681000000     4.902000000
O     0.315000000    -3.602000000     2.595000000
H     0.919000000    -3.719000000     1.861000000
H    -0.555000000    -3.625000000     2.196000000
O    -2.434000000    -0.364000000     6.736000000
H    -2.993000000    -0.304000000     7.510000000
H    -2.911000000     0.116000000     6.059000000
