161
-3055.71364
C    -1.251000000    -0.594000000     0.426000000
H    -2.237000000    -0.957000000     0.707000000
C    -0.780000000    -0.677000000    -0.874000000
H    -1.348000000    -1.252000000    -1.600000000
C     0.431000000    -0.065000000    -1.171000000
C     1.048000000    -0.152000000    -2.552000000
H     0.363000000     0.370000000    -3.223000000
H     2.115000000     0.081000000    -2.529000000
H     0.956000000    -1.214000000    -2.791000000
C     1.174000000     0.614000000    -0.188000000
H     2.173000000     0.996000000    -0.382000000
C     0.687000000     0.740000000     1.129000000
H     1.184000000     1.301000000     1.916000000
C    -0.563000000     0.154000000     1.425000000
C    -1.177000000     0.246000000     2.837000000
O    -0.814000000     1.074000000     3.658000000
O    -1.968000000    -0.657000000     3.205000000
O    -0.014000000     2.635000000    -5.620000000
H     0.130000000     1.772000000    -6.008000000
H    -0.844000000     2.552000000    -5.151000000
O    -5.348000000    -1.755000000    -2.008000000
H    -6.049000000    -1.111000000    -2.113000000
H    -5.356000000    -1.967000000    -1.075000000
O     2.915000000    -0.665000000    -6.377000000
H     2.101000000    -0.431000000    -5.931000000
H     3.347000000     0.173000000    -6.542000000
O     2.062000000    -3.253000000    -5.548000000
H     2.465000000    -2.398000000    -5.697000000
H     2.795000000    -3.868000000    -5.559000000
O     2.563000000     3.392000000    -4.788000000
H     3.194000000     3.044000000    -5.418000000
H     1.714000000     3.078000000    -5.102000000
O    -3.561000000    -1.307000000    -4.379000000
H    -3.714000000    -0.369000000    -4.497000000
H    -4.183000000    -1.567000000    -3.700000000
O    -4.374000000     0.704000000     0.383000000
H    -4.035000000     0.128000000     1.069000000
H    -4.086000000     1.579000000     0.641000000
O     6.255000000     0.117000000     0.706000000
H     6.756000000     0.586000000     1.373000000
H     6.882000000    -0.035000000    -0.001000000
O     3.363000000     4.913000000     2.108000000
H     3.395000000     4.497000000     1.247000000
H     2.584000000     5.468000000     2.076000000
O     6.478000000     3.405000000    -0.453000000
H     5.605000000     3.487000000    -0.069000000
H     7.075000000     3.639000000     0.257000000
O    -3.288000000    -0.865000000     5.471000000
H    -2.842000000    -0.715000000     4.637000000
H    -4.145000000    -1.213000000     5.225000000
O    -2.722000000     2.364000000     5.122000000
H    -1.955000000     2.003000000     4.678000000
H    -2.405000000     2.603000000     5.993000000
O    -3.212000000    -4.583000000    -4.638000000
H    -4.044000000    -4.228000000    -4.949000000
H    -3.144000000    -4.276000000    -3.734000000
O     4.858000000    -0.307000000    -1.571000000
H     5.215000000     0.469000000    -2.003000000
H     5.065000000    -0.182000000    -0.645000000
O    -0.132000000     3.306000000    -0.158000000
H    -0.431000000     3.489000000     0.732000000
H     0.238000000     2.424000000    -0.110000000
O    -1.729000000    -2.739000000    -6.193000000
H    -2.310000000    -2.162000000    -5.697000000
H    -2.057000000    -3.620000000    -6.016000000
O    -0.966000000    -2.979000000     3.840000000
H    -1.285000000    -2.106000000     3.613000000
H    -1.134000000    -3.060000000     4.779000000
O     2.194000000     2.769000000     3.360000000
H     2.698000000     3.506000000     3.016000000
H     2.629000000     1.994000000     3.003000000
O     4.075000000     2.854000000    -2.357000000
H     4.975000000     3.050000000    -2.618000000
H     3.678000000     2.466000000    -3.137000000
O     3.538000000    -2.720000000    -1.627000000
H     3.311000000    -2.768000000    -2.556000000
H     3.882000000    -1.835000000    -1.510000000
O    -2.449000000     2.501000000    -4.132000000
H    -2.497000000     3.171000000    -3.450000000
H    -3.251000000     1.991000000    -4.025000000
O     0.227000000    -4.095000000     1.755000000
H    -0.443000000    -3.957000000     1.085000000
H    -0.153000000    -3.727000000     2.553000000
O    -3.528000000     3.474000000     0.887000000
H    -3.382000000     3.888000000     1.738000000
H    -2.842000000     3.833000000     0.325000000
O     3.130000000    -3.042000000     0.925000000
H     3.083000000    -2.967000000    -0.028000000
H     2.259000000    -3.341000000     1.186000000
O    -7.567000000    -0.947000000     1.195000000
H    -7.688000000    -0.240000000     0.561000000
H    -6.820000000    -1.444000000     0.859000000
O    -1.078000000     3.743000000     2.639000000
H    -1.634000000     4.252000000     3.228000000
H    -0.952000000     2.908000000     3.090000000
O    -1.858000000     4.154000000    -2.145000000
H    -1.029000000     3.928000000    -1.723000000
H    -2.098000000     4.999000000    -1.766000000
O    -5.331000000     1.192000000     4.949000000
H    -5.369000000     0.708000000     4.124000000
H    -4.533000000     1.717000000     4.882000000
O     3.012000000     4.055000000    -0.353000000
H     3.337000000     3.386000000    -0.957000000
H     2.112000000     4.216000000    -0.635000000
O     1.994000000    -0.712000000     4.131000000
H     2.459000000    -0.662000000     3.296000000
H     1.498000000     0.105000000     4.179000000
O     0.634000000    -0.843000000     7.288000000
H     0.661000000    -0.404000000     8.138000000
H     0.790000000    -0.143000000     6.653000000
O    -5.780000000    -0.944000000     3.047000000
H    -6.421000000    -0.895000000     2.337000000
H    -5.491000000    -1.856000000     3.046000000
O    -2.971000000     0.718000000     7.898000000
H    -3.313000000     0.035000000     7.321000000
H    -2.650000000     1.396000000     7.303000000
O    -3.465000000    -3.903000000    -2.079000000
H    -4.254000000    -4.348000000    -1.768000000
H    -3.581000000    -2.992000000    -1.808000000
O     0.540000000     5.790000000     1.504000000
H     0.245000000     4.966000000     1.893000000
H     0.497000000     5.638000000     0.560000000
O     0.178000000    -0.208000000    -5.898000000
H    -0.177000000    -1.057000000    -5.636000000
H    -0.461000000     0.136000000    -6.523000000
O    -3.218000000     4.974000000     3.836000000
H    -4.072000000     4.543000000     3.798000000
H    -3.357000000     5.733000000     4.402000000
O     1.214000000     4.578000000     5.964000000
H     1.453000000     4.047000000     5.204000000
H     1.712000000     5.388000000     5.856000000
O     0.558000000     1.354000000     5.918000000
H     0.665000000     2.304000000     5.976000000
H     0.010000000     1.222000000     5.144000000
O    -1.506000000    -5.234000000    -0.678000000
H    -0.797000000    -5.061000000    -1.296000000
H    -2.297000000    -4.950000000    -1.135000000
O    -0.120000000    -5.086000000    -3.685000000
H    -0.063000000    -4.201000000    -4.047000000
H    -0.720000000    -5.546000000    -4.272000000
O     3.610000000    -0.382000000     1.863000000
H     3.277000000    -1.143000000     1.388000000
H     4.561000000    -0.434000000     1.763000000
O    -4.781000000     1.293000000    -2.512000000
H    -4.556000000     1.210000000    -1.586000000
H    -5.391000000     0.573000000    -2.676000000
O    -4.208000000    -3.168000000     2.616000000
H    -4.105000000    -4.100000000     2.807000000
H    -3.312000000    -2.834000000     2.562000000
O    -5.826000000    -2.670000000     0.412000000
H    -6.261000000    -3.468000000     0.111000000
H    -5.266000000    -2.961000000     1.132000000
O    -1.375000000    -2.533000000     6.548000000
H    -0.639000000    -2.039000000     6.910000000
H    -1.956000000    -1.864000000     6.184000000
O     5.080000000     2.023000000     3.954000000
H     5.498000000     2.458000000     4.697000000
H     4.267000000     1.667000000     4.313000000
O     0.936000000     5.640000000    -3.892000000
H     1.133000000     4.716000000    -4.050000000
H     1.111000000     6.068000000    -4.730000000
