161
-3044.12690
C    -0.848000000    -0.171000000     1.096000000
H    -1.462000000    -0.583000000     1.893000000
C    -0.696000000    -1.034000000     0.054000000
H    -1.310000000    -1.920000000     0.201000000
C     0.132000000    -0.823000000    -0.944000000
C     0.456000000    -1.856000000    -2.047000000
H     0.080000000    -1.526000000    -3.018000000
H     1.533000000    -1.789000000    -2.212000000
H     0.043000000    -2.829000000    -1.773000000
C     0.946000000     0.368000000    -0.834000000
H     1.597000000     0.624000000    -1.665000000
C     0.753000000     1.335000000     0.172000000
H     1.276000000     2.288000000     0.183000000
C    -0.230000000     1.047000000     1.165000000
C    -0.638000000     2.014000000     2.289000000
O     0.053000000     2.988000000     2.518000000
O    -1.678000000     1.873000000     2.926000000
O    -3.266000000    -6.689000000     1.780000000
H    -3.442000000    -6.501000000     2.701000000
H    -2.870000000    -5.886000000     1.443000000
O     2.242000000     0.724000000    -4.881000000
H     1.496000000     1.293000000    -5.073000000
H     2.203000000     0.044000000    -5.553000000
O    -2.813000000    -2.130000000    -3.624000000
H    -3.261000000    -1.299000000    -3.463000000
H    -1.882000000    -1.910000000    -3.590000000
O    -2.419000000     2.457000000    -0.913000000
H    -3.170000000     2.692000000    -0.369000000
H    -1.855000000     1.945000000    -0.333000000
O     4.311000000     3.087000000     0.474000000
H     3.637000000     3.014000000     1.149000000
H     3.825000000     3.099000000    -0.350000000
O    -4.170000000     1.152000000     7.224000000
H    -3.254000000     1.193000000     6.947000000
H    -4.640000000     1.674000000     6.574000000
O    -4.017000000     0.757000000     2.871000000
H    -3.227000000     1.297000000     2.845000000
H    -4.112000000     0.516000000     3.793000000
O    -3.581000000     3.602000000     3.688000000
H    -2.879000000     2.976000000     3.508000000
H    -3.698000000     4.074000000     2.865000000
O    -1.161000000     4.377000000    -2.647000000
H    -1.450000000     3.651000000    -2.094000000
H    -1.819000000     4.425000000    -3.341000000
O    -0.189000000    -2.087000000    -6.055000000
H    -1.014000000    -2.529000000    -5.854000000
H    -0.449000000    -1.302000000    -6.537000000
O     2.748000000     3.302000000     2.625000000
H     2.729000000     3.667000000     3.510000000
H     1.829000000     3.137000000     2.414000000
O     0.332000000    -0.871000000     4.511000000
H     1.153000000    -0.837000000     4.020000000
H     0.385000000    -0.134000000     5.119000000
O     2.536000000     0.946000000     5.762000000
H     1.794000000     1.547000000     5.695000000
H     2.629000000     0.783000000     6.701000000
O    -3.218000000     5.837000000     1.685000000
H    -2.299000000     5.603000000     1.555000000
H    -3.189000000     6.683000000     2.132000000
O     3.550000000     3.455000000    -2.073000000
H     4.083000000     4.124000000    -2.502000000
H     2.936000000     3.168000000    -2.749000000
O     4.331000000     0.933000000    -3.232000000
H     4.215000000     1.812000000    -2.871000000
H     3.643000000     0.853000000    -3.892000000
O    -3.374000000     0.657000000    -3.280000000
H    -3.513000000     0.890000000    -2.362000000
H    -3.483000000     1.481000000    -3.755000000
O    -4.570000000     2.251000000     0.739000000
H    -5.343000000     2.815000000     0.751000000
H    -4.643000000     1.727000000     1.537000000
O    -4.265000000    -2.160000000     2.263000000
H    -4.764000000    -2.565000000     1.554000000
H    -4.478000000    -1.229000000     2.204000000
O     3.168000000     2.931000000    -5.995000000
H     3.394000000     2.341000000    -6.714000000
H     2.809000000     2.358000000    -5.318000000
O    -2.088000000    -5.885000000    -2.205000000
H    -2.473000000    -5.938000000    -3.080000000
H    -2.589000000    -5.199000000    -1.764000000
O    -1.925000000    -4.095000000     1.055000000
H    -2.266000000    -3.468000000     1.692000000
H    -2.345000000    -3.851000000     0.230000000
O     5.205000000     5.349000000     2.100000000
H     5.354000000     6.062000000     1.478000000
H     4.645000000     4.733000000     1.628000000
O     2.757000000    -3.548000000     1.137000000
H     2.699000000    -3.780000000     0.210000000
H     3.583000000    -3.934000000     1.429000000
O     1.323000000     5.759000000     6.215000000
H     1.612000000     6.661000000     6.352000000
H     1.466000000     5.601000000     5.282000000
O     1.874000000    -3.951000000    -3.431000000
H     2.308000000    -3.988000000    -4.284000000
H     1.481000000    -3.079000000    -3.400000000
O    -2.413000000    -1.782000000     5.557000000
H    -2.651000000    -0.890000000     5.809000000
H    -1.732000000    -1.670000000     4.893000000
O     4.791000000    -0.346000000     1.650000000
H     3.884000000    -0.644000000     1.590000000
H     4.817000000     0.187000000     2.445000000
O    -0.454000000     5.261000000     1.476000000
H     0.105000000     5.266000000     0.700000000
H    -0.202000000     4.467000000     1.948000000
O    -5.494000000     2.228000000     5.258000000
H    -5.153000000     3.074000000     4.970000000
H    -6.202000000     2.033000000     4.644000000
O     1.188000000     3.060000000    -3.612000000
H     0.731000000     2.771000000    -4.401000000
H     0.495000000     3.392000000    -3.041000000
O     1.676000000    -3.309000000     5.144000000
H     1.199000000    -2.528000000     4.866000000
H     1.230000000    -4.032000000     4.703000000
O     2.120000000    -1.020000000     1.962000000
H     2.281000000    -1.918000000     1.673000000
H     1.389000000    -0.721000000     1.421000000
O    -1.773000000     0.946000000     5.426000000
H    -1.222000000     1.590000000     5.870000000
H    -1.529000000     1.019000000     4.503000000
O    -0.117000000     2.105000000    -5.829000000
H    -0.756000000     2.731000000    -6.168000000
H    -0.405000000     1.259000000    -6.172000000
O    -3.431000000    -4.102000000     4.460000000
H    -3.022000000    -3.446000000     5.024000000
H    -3.872000000    -3.593000000     3.780000000
O     3.539000000    -4.263000000    -1.420000000
H     4.103000000    -3.490000000    -1.447000000
H     2.929000000    -4.140000000    -2.147000000
O    -3.579000000     5.782000000     5.428000000
H    -3.452000000     4.924000000     5.023000000
H    -3.171000000     6.397000000     4.817000000
O    -2.311000000    -3.887000000    -5.688000000
H    -2.500000000    -3.645000000    -4.782000000
H    -3.143000000    -3.770000000    -6.147000000
O     1.303000000     5.274000000    -0.656000000
H     0.879000000     5.723000000    -1.387000000
H     1.799000000     4.566000000    -1.066000000
O     1.498000000     5.886000000     3.555000000
H     1.641000000     6.805000000     3.782000000
H     0.885000000     5.912000000     2.821000000
O     0.561000000     2.835000000     5.096000000
H     0.669000000     3.741000000     5.387000000
H     0.455000000     2.899000000     4.147000000
O     1.769000000    -4.124000000    -6.167000000
H     1.123000000    -4.759000000    -6.477000000
H     1.300000000    -3.289000000    -6.163000000
O     4.384000000    -1.480000000    -1.338000000
H     4.541000000    -0.839000000    -0.645000000
H     4.135000000    -0.954000000    -2.099000000
O    -5.243000000     0.342000000    -1.147000000
H    -4.938000000     0.966000000    -0.489000000
H    -5.616000000    -0.379000000    -0.639000000
O    -3.280000000    -3.734000000    -1.111000000
H    -3.139000000    -3.190000000    -1.886000000
H    -4.213000000    -3.644000000    -0.921000000
O     0.671000000    -6.694000000    -2.302000000
H     1.087000000    -5.917000000    -2.675000000
H    -0.149000000    -6.371000000    -1.928000000
O     0.421000000    -4.679000000     2.408000000
H     1.063000000    -4.072000000     2.040000000
H    -0.272000000    -4.723000000     1.749000000
