161
-3018.13535
C    -1.244000000     0.078000000    -0.844000000
H    -2.121000000    -0.061000000    -1.471000000
C    -0.037000000    -0.528000000    -1.157000000
H     0.028000000    -1.037000000    -2.116000000
C     1.105000000    -0.501000000    -0.283000000
C     2.359000000    -1.125000000    -0.819000000
H     3.173000000    -0.398000000    -0.781000000
H     2.692000000    -2.015000000    -0.282000000
H     2.239000000    -1.395000000    -1.870000000
C     1.047000000     0.174000000     0.909000000
H     1.903000000     0.318000000     1.562000000
C    -0.213000000     0.729000000     1.204000000
H    -0.339000000     1.243000000     2.153000000
C    -1.372000000     0.640000000     0.397000000
C    -2.726000000     1.188000000     0.946000000
O    -2.741000000     1.883000000     1.976000000
O    -3.745000000     0.804000000     0.482000000
O     0.631000000     2.707000000    -6.046000000
H     1.492000000     2.863000000    -5.658000000
H     0.106000000     2.352000000    -5.329000000
O    -3.056000000    -4.174000000    -4.664000000
H    -3.774000000    -4.561000000    -4.163000000
H    -2.642000000    -3.562000000    -4.056000000
O     3.066000000    -0.360000000    -4.568000000
H     2.317000000    -0.957000000    -4.547000000
H     3.239000000    -0.227000000    -5.500000000
O     6.291000000    -3.947000000     1.095000000
H     6.311000000    -2.998000000     0.973000000
H     6.129000000    -4.065000000     2.031000000
O    -0.642000000    -2.404000000    -5.199000000
H     0.135000000    -2.764000000    -5.627000000
H    -1.308000000    -3.084000000    -5.299000000
O    -4.194000000     4.063000000    -2.464000000
H    -3.430000000     4.041000000    -1.889000000
H    -4.459000000     3.147000000    -2.546000000
O     0.519000000     3.326000000    -0.079000000
H     0.375000000     2.479000000     0.343000000
H     1.462000000     3.472000000    -0.007000000
O     2.230000000    -3.594000000    -4.892000000
H     1.894000000    -4.464000000    -5.106000000
H     2.474000000    -3.216000000    -5.737000000
O    -2.811000000    -2.958000000     0.577000000
H    -2.111000000    -2.540000000     1.079000000
H    -3.601000000    -2.475000000     0.821000000
O    -4.800000000    -1.463000000     1.913000000
H    -4.225000000    -0.946000000     2.477000000
H    -5.096000000    -0.846000000     1.244000000
O    -5.264000000     2.843000000     6.064000000
H    -5.588000000     2.728000000     5.171000000
H    -6.046000000     2.778000000     6.612000000
O    -2.025000000     4.232000000    -0.694000000
H    -1.315000000     4.586000000    -1.230000000
H    -1.586000000     3.670000000    -0.056000000
O     2.033000000     0.817000000     6.023000000
H     2.306000000     1.452000000     6.685000000
H     2.380000000     1.163000000     5.201000000
O     5.979000000    -3.447000000    -4.618000000
H     5.444000000    -3.165000000    -5.360000000
H     5.780000000    -2.817000000    -3.926000000
O    -5.514000000     5.387000000     4.800000000
H    -4.692000000     5.742000000     4.461000000
H    -5.518000000     4.474000000     4.511000000
O    -1.382000000    -1.918000000     2.606000000
H    -0.672000000    -1.303000000     2.787000000
H    -2.098000000    -1.631000000     3.173000000
O    -5.268000000     4.724000000     0.708000000
H    -4.709000000     4.055000000     0.312000000
H    -5.529000000     5.282000000    -0.025000000
O     3.039000000     3.823000000     0.489000000
H     3.235000000     4.712000000     0.192000000
H     3.895000000     3.441000000     0.682000000
O     5.874000000     1.549000000    -1.044000000
H     6.455000000     0.934000000    -1.492000000
H     5.755000000     2.264000000    -1.669000000
O    -0.621000000    -4.802000000    -0.334000000
H    -1.216000000    -4.343000000     0.259000000
H    -0.460000000    -5.644000000     0.093000000
O    -4.196000000    -1.144000000    -5.911000000
H    -4.808000000    -0.412000000    -5.831000000
H    -3.533000000    -0.978000000    -5.241000000
O     1.288000000    -1.345000000     4.480000000
H     1.367000000    -0.519000000     4.957000000
H     2.049000000    -1.855000000     4.757000000
O     0.090000000    -4.480000000     3.081000000
H    -0.308000000    -3.632000000     2.881000000
H     0.525000000    -4.348000000     3.923000000
O    -7.377000000     1.231000000     2.957000000
H    -6.696000000     1.490000000     2.336000000
H    -7.711000000     2.059000000     3.304000000
O     1.354000000     2.132000000    -3.053000000
H     2.167000000     1.735000000    -3.365000000
H     1.639000000     2.883000000    -2.531000000
O    -7.826000000     4.331000000    -0.837000000
H    -7.237000000     3.851000000    -0.255000000
H    -8.353000000     4.874000000    -0.250000000
O     6.555000000    -0.762000000     1.107000000
H     6.823000000    -0.396000000     0.264000000
H     7.332000000    -0.685000000     1.660000000
O     2.844000000     2.268000000     3.720000000
H     3.602000000     2.023000000     3.190000000
H     2.428000000     2.977000000     3.229000000
O    -4.511000000     1.494000000    -2.385000000
H    -4.259000000     1.049000000    -3.194000000
H    -3.883000000     1.181000000    -1.734000000
O    -6.114000000     1.657000000     0.513000000
H    -5.213000000     1.388000000     0.334000000
H    -6.630000000     1.243000000    -0.179000000
O     4.581000000    -1.984000000    -3.017000000
H     4.417000000    -1.456000000    -3.799000000
H     4.553000000    -1.357000000    -2.295000000
O    -6.567000000    -2.769000000     3.336000000
H    -5.879000000    -2.373000000     2.802000000
H    -7.048000000    -2.025000000     3.698000000
O    -2.098000000    -2.727000000    -2.259000000
H    -1.212000000    -3.052000000    -2.095000000
H    -2.534000000    -2.782000000    -1.408000000
O    -1.367000000     4.395000000     2.695000000
H    -1.448000000     3.483000000     2.417000000
H    -0.454000000     4.483000000     2.966000000
O    -2.227000000    -0.572000000    -3.920000000
H    -2.397000000    -1.363000000    -3.408000000
H    -1.503000000    -0.812000000    -4.499000000
O    -2.575000000     3.509000000     5.206000000
H    -3.380000000     3.193000000     4.796000000
H    -2.028000000     3.794000000     4.474000000
O    -4.983000000     3.073000000     3.049000000
H    -5.404000000     3.283000000     2.216000000
H    -4.260000000     2.492000000     2.814000000
O    -3.213000000     0.146000000     3.838000000
H    -3.504000000     0.606000000     4.625000000
H    -2.885000000     0.838000000     3.264000000
O     3.701000000    -5.019000000    -2.931000000
H     4.262000000    -4.341000000    -2.554000000
H     3.279000000    -4.593000000    -3.677000000
O     4.996000000     2.342000000     1.732000000
H     4.950000000     1.468000000     1.345000000
H     5.676000000     2.271000000     2.402000000
O     1.221000000     4.963000000     3.694000000
H     2.078000000     5.062000000     4.108000000
H     1.101000000     5.771000000     3.196000000
O    -5.242000000    -3.475000000    -2.348000000
H    -5.232000000    -3.932000000    -1.507000000
H    -5.199000000    -2.547000000    -2.117000000
O    -3.432000000     5.905000000     2.483000000
H    -4.055000000     5.517000000     1.869000000
H    -2.685000000     5.307000000     2.477000000
O     3.938000000    -7.157000000    -0.861000000
H     3.090000000    -7.506000000    -0.586000000
H     3.723000000    -6.367000000    -1.356000000
O    -5.696000000    -1.049000000    -1.014000000
H    -5.067000000    -0.368000000    -1.253000000
H    -6.530000000    -0.740000000    -1.368000000
O    -7.474000000     0.458000000    -2.036000000
H    -8.387000000     0.273000000    -1.815000000
H    -7.517000000     1.221000000    -2.612000000
O    -0.657000000    -6.101000000    -2.624000000
H    -0.638000000    -5.451000000    -3.327000000
H    -0.482000000    -5.599000000    -1.829000000
O    -1.237000000     1.965000000    -3.982000000
H    -0.357000000     1.804000000    -3.640000000
H    -1.680000000     1.119000000    -3.909000000
