161
-3059.05349
C    -0.511000000     0.828000000    -1.037000000
H    -0.718000000     1.485000000    -1.878000000
C     0.539000000    -0.091000000    -1.172000000
H     0.915000000    -0.237000000    -2.182000000
C     0.934000000    -0.838000000    -0.096000000
C     1.983000000    -1.908000000    -0.200000000
H     2.997000000    -1.624000000     0.091000000
H     1.734000000    -2.654000000     0.558000000
H     1.993000000    -2.381000000    -1.184000000
C     0.228000000    -0.625000000     1.085000000
H     0.521000000    -1.262000000     1.916000000
C    -0.912000000     0.237000000     1.155000000
H    -1.491000000     0.365000000     2.065000000
C    -1.214000000     1.024000000     0.083000000
C    -2.182000000     2.174000000     0.256000000
O    -2.196000000     2.813000000     1.320000000
O    -2.625000000     2.692000000    -0.778000000
O    -1.769000000    -6.728000000    -0.152000000
H    -1.312000000    -5.888000000    -0.107000000
H    -1.131000000    -7.327000000    -0.540000000
O    -7.650000000     4.833000000    -0.528000000
H    -6.721000000     4.734000000    -0.739000000
H    -8.083000000     4.894000000    -1.379000000
O     2.793000000    -4.922000000    -2.041000000
H     3.558000000    -5.297000000    -1.605000000
H     2.179000000    -4.737000000    -1.330000000
O     2.940000000    -2.987000000    -4.259000000
H     2.639000000    -3.774000000    -3.805000000
H     3.723000000    -3.268000000    -4.733000000
O    -5.626000000     5.000000000     3.161000000
H    -5.418000000     4.174000000     2.724000000
H    -5.140000000     4.964000000     3.985000000
O    -2.791000000     3.475000000    -3.288000000
H    -2.963000000     2.626000000    -3.694000000
H    -2.664000000     3.276000000    -2.361000000
O     5.703000000    -1.707000000    -0.393000000
H     6.401000000    -2.201000000    -0.822000000
H     5.353000000    -1.140000000    -1.080000000
O    -2.203000000    -3.169000000     2.337000000
H    -2.735000000    -2.394000000     2.512000000
H    -2.801000000    -3.905000000     2.466000000
O     5.755000000     0.190000000    -2.638000000
H     5.103000000     0.826000000    -2.934000000
H     6.009000000    -0.280000000    -3.432000000
O    -1.702000000     6.845000000    -1.157000000
H    -0.897000000     6.795000000    -1.673000000
H    -2.317000000     7.315000000    -1.720000000
O     0.605000000     4.216000000    -2.061000000
H     0.582000000     5.171000000    -2.115000000
H     0.817000000     4.033000000    -1.145000000
O     0.622000000     3.887000000     1.128000000
H     0.900000000     4.713000000     1.523000000
H    -0.326000000     3.865000000     1.260000000
O    -0.250000000     3.404000000    -4.419000000
H     0.320000000     3.431000000    -3.651000000
H    -1.121000000     3.608000000    -4.078000000
O     5.702000000     1.627000000    -0.327000000
H     4.803000000     1.840000000    -0.579000000
H     6.009000000     1.035000000    -1.013000000
O     2.024000000     2.444000000     3.354000000
H     1.479000000     2.905000000     2.716000000
H     1.731000000     2.774000000     4.203000000
O     4.857000000     0.372000000    -5.661000000
H     4.086000000     0.357000000    -5.093000000
H     5.204000000    -0.519000000    -5.616000000
O     3.395000000     0.110000000     3.622000000
H     4.224000000     0.466000000     3.301000000
H     2.864000000     0.882000000     3.819000000
O    -5.035000000     4.388000000    -0.642000000
H    -4.732000000     3.644000000    -0.122000000
H    -4.235000000     4.860000000    -0.873000000
O     3.011000000     1.499000000     0.889000000
H     2.836000000     1.552000000     1.829000000
H     2.245000000     1.053000000     0.528000000
O     5.531000000    -1.715000000     2.331000000
H     4.948000000    -1.002000000     2.593000000
H     5.575000000    -1.651000000     1.378000000
O     3.575000000    -0.884000000     6.192000000
H     3.339000000    -0.593000000     5.311000000
H     4.456000000    -0.537000000     6.331000000
O    -0.345000000    -4.585000000     0.527000000
H     0.201000000    -4.785000000     1.287000000
H    -0.928000000    -3.887000000     0.828000000
O    -0.620000000     0.822000000     4.441000000
H    -0.279000000     0.762000000     3.549000000
H    -0.195000000     0.103000000     4.909000000
O     2.651000000    -0.267000000    -4.278000000
H     2.821000000    -1.185000000    -4.490000000
H     1.857000000    -0.051000000    -4.766000000
O     5.391000000     1.558000000     2.532000000
H     6.340000000     1.657000000     2.461000000
H     5.079000000     1.586000000     1.627000000
O     0.984000000    -4.852000000     2.920000000
H     0.389000000    -4.207000000     3.303000000
H     1.856000000    -4.566000000     3.193000000
O    -0.861000000    -3.211000000     5.009000000
H    -1.055000000    -2.456000000     4.453000000
H    -0.270000000    -2.870000000     5.680000000
O    -4.837000000     0.870000000    -1.279000000
H    -5.009000000     1.106000000    -2.191000000
H    -4.169000000     1.493000000    -0.992000000
O    -4.203000000    -1.075000000     1.490000000
H    -4.505000000    -0.977000000     2.393000000
H    -4.760000000    -0.482000000     0.985000000
O     5.990000000    -4.527000000    -1.815000000
H     5.321000000    -4.068000000    -1.306000000
H     6.248000000    -5.264000000    -1.260000000
O     3.787000000     3.744000000    -0.351000000
H     3.901000000     3.526000000    -1.276000000
H     3.437000000     2.945000000     0.043000000
O     0.326000000     0.855000000    -5.415000000
H    -0.022000000     1.674000000    -5.063000000
H     0.013000000     0.182000000    -4.810000000
O     0.419000000    -1.863000000    -4.391000000
H     1.143000000    -2.351000000    -3.998000000
H     0.307000000    -2.257000000    -5.256000000
O    -1.954000000     3.262000000     4.095000000
H    -1.952000000     3.532000000     3.177000000
H    -1.805000000     2.317000000     4.067000000
O    -6.771000000    -0.260000000     0.185000000
H    -6.970000000     0.537000000     0.676000000
H    -6.215000000     0.035000000    -0.536000000
O    -2.530000000     0.965000000    -4.218000000
H    -2.117000000     0.295000000    -3.674000000
H    -3.000000000     0.472000000    -4.890000000
O    -3.951000000     5.858000000    -3.881000000
H    -3.186000000     6.308000000    -4.240000000
H    -3.613000000     5.013000000    -3.583000000
O    -3.299000000     6.575000000     4.232000000
H    -2.817000000     5.765000000     4.398000000
H    -3.494000000     6.551000000     3.296000000
O    -4.957000000     2.742000000     1.906000000
H    -5.285000000     1.947000000     2.327000000
H    -4.005000000     2.653000000     1.936000000
O    -2.065000000    -2.222000000    -0.690000000
H    -2.390000000    -2.546000000     0.150000000
H    -1.315000000    -1.674000000    -0.460000000
O     5.008000000    -5.769000000     2.224000000
H     4.128000000    -5.393000000     2.250000000
H     5.545000000    -5.157000000     2.727000000
O     0.525000000    -0.769000000     6.413000000
H     1.381000000    -0.420000000     6.660000000
H     0.304000000    -1.380000000     7.116000000
O    -3.301000000    -1.137000000     4.282000000
H    -3.240000000    -0.356000000     4.832000000
H    -3.583000000    -1.829000000     4.880000000
O    -2.026000000     5.492000000     1.190000000
H    -2.224000000     4.559000000     1.114000000
H    -1.902000000     5.785000000     0.287000000
O    -4.297000000     7.294000000     1.261000000
H    -5.196000000     7.035000000     1.055000000
H    -3.789000000     6.489000000     1.164000000
O    -2.423000000    -2.429000000    -3.663000000
H    -2.489000000    -2.373000000    -2.710000000
H    -1.488000000    -2.332000000    -3.844000000
O     3.643000000     2.234000000    -3.167000000
H     3.122000000     1.474000000    -3.428000000
H     3.564000000     2.842000000    -3.902000000
O     0.466000000     6.195000000     2.712000000
H     0.589000000     6.965000000     3.268000000
H    -0.289000000     6.414000000     2.165000000
