161
-3045.54058
C    -0.142000000    -0.762000000    -1.307000000
H    -0.137000000    -1.328000000    -2.235000000
C     0.994000000    -0.421000000    -0.668000000
H     1.917000000    -0.682000000    -1.179000000
C     1.056000000     0.330000000     0.485000000
C     2.362000000     0.551000000     1.206000000
H     3.177000000     0.762000000     0.510000000
H     2.336000000     1.365000000     1.933000000
H     2.656000000    -0.283000000     1.847000000
C    -0.070000000     0.878000000     1.009000000
H    -0.089000000     1.474000000     1.918000000
C    -1.283000000     0.529000000     0.369000000
H    -2.203000000     0.823000000     0.868000000
C    -1.332000000    -0.382000000    -0.691000000
C    -2.699000000    -0.802000000    -1.248000000
O    -3.725000000    -0.639000000    -0.550000000
O    -2.820000000    -1.417000000    -2.275000000
O     5.013000000    -1.436000000     4.443000000
H     5.461000000    -1.412000000     3.597000000
H     4.130000000    -1.744000000     4.237000000
O     5.811000000    -1.441000000     1.630000000
H     5.694000000    -0.825000000     0.907000000
H     5.537000000    -2.286000000     1.272000000
O    -2.442000000    -5.692000000    -3.188000000
H    -2.948000000    -6.450000000    -2.898000000
H    -2.856000000    -4.947000000    -2.753000000
O    -6.437000000     0.630000000     1.613000000
H    -7.179000000     0.351000000     1.077000000
H    -6.438000000     1.585000000     1.544000000
O    -7.119000000    -1.614000000     3.146000000
H    -6.773000000    -0.886000000     2.629000000
H    -8.057000000    -1.619000000     2.954000000
O     4.355000000     4.272000000     3.336000000
H     4.641000000     4.484000000     4.224000000
H     3.634000000     3.654000000     3.457000000
O    -6.506000000    -3.845000000    -0.477000000
H    -6.927000000    -3.870000000     0.382000000
H    -6.602000000    -4.735000000    -0.817000000
O    -2.538000000    -3.900000000     0.236000000
H    -3.116000000    -3.306000000     0.716000000
H    -2.956000000    -4.001000000    -0.619000000
O     0.137000000    -2.933000000     0.923000000
H    -0.480000000    -3.179000000     0.234000000
H     0.563000000    -2.142000000     0.590000000
O     4.910000000    -1.390000000    -3.308000000
H     4.474000000    -0.560000000    -3.505000000
H     4.233000000    -2.053000000    -3.441000000
O    -5.430000000    -3.310000000    -4.646000000
H    -6.261000000    -3.671000000    -4.955000000
H    -5.639000000    -2.411000000    -4.394000000
O     1.309000000     3.987000000     1.923000000
H     1.594000000     3.893000000     1.014000000
H     0.359000000     4.089000000     1.867000000
O     2.079000000     2.756000000     4.170000000
H     1.550000000     3.301000000     3.586000000
H     1.635000000     1.908000000     4.173000000
O    -3.949000000    -3.824000000    -1.921000000
H    -3.656000000    -2.946000000    -2.163000000
H    -4.870000000    -3.712000000    -1.682000000
O    -5.638000000    -3.687000000     2.627000000
H    -6.118000000    -2.900000000     2.885000000
H    -4.810000000    -3.359000000     2.276000000
O     5.712000000     2.158000000     5.719000000
H     5.094000000     1.702000000     5.148000000
H     6.574000000     1.878000000     5.412000000
O    -0.199000000    -3.292000000    -4.276000000
H    -0.297000000    -3.503000000    -5.204000000
H    -0.374000000    -4.116000000    -3.822000000
O     0.476000000     0.810000000     5.496000000
H    -0.192000000     0.605000000     6.151000000
H     0.633000000    -0.019000000     5.046000000
O    -0.370000000     3.880000000     5.501000000
H     0.153000000     4.682000000     5.502000000
H     0.274000000     3.174000000     5.453000000
O     2.981000000    -2.619000000     2.997000000
H     2.479000000    -3.270000000     3.487000000
H     3.225000000    -3.065000000     2.186000000
O     5.937000000     3.649000000     1.313000000
H     5.308000000     3.647000000     2.034000000
H     6.753000000     3.958000000     1.709000000
O    -2.609000000    -1.937000000    -4.793000000
H    -2.665000000    -1.732000000    -3.860000000
H    -1.941000000    -2.619000000    -4.849000000
O     0.503000000     3.082000000    -0.682000000
H     1.251000000     2.592000000    -1.023000000
H    -0.155000000     2.413000000    -0.492000000
O    -8.160000000     1.501000000    -2.383000000
H    -7.440000000     1.139000000    -1.865000000
H    -8.194000000     2.424000000    -2.132000000
O     2.609000000    -3.281000000    -3.308000000
H     2.796000000    -4.052000000    -3.843000000
H     1.657000000    -3.195000000    -3.337000000
O    -3.253000000    -4.766000000    -5.754000000
H    -3.459000000    -3.990000000    -5.232000000
H    -2.887000000    -5.387000000    -5.124000000
O     0.328000000    -1.239000000     3.814000000
H    -0.346000000    -1.451000000     3.168000000
H     1.153000000    -1.330000000     3.338000000
O     0.367000000     0.727000000    -4.330000000
H    -0.147000000     1.508000000    -4.124000000
H    -0.206000000     0.203000000    -4.890000000
O    -6.592000000    -0.977000000    -3.712000000
H    -6.335000000    -0.583000000    -2.879000000
H    -5.986000000    -0.602000000    -4.352000000
O     3.722000000     4.840000000    -1.923000000
H     3.187000000     5.494000000    -2.374000000
H     3.282000000     4.008000000    -2.099000000
O    -2.400000000    -0.461000000     4.080000000
H    -2.802000000    -0.949000000     4.798000000
H    -1.595000000    -0.103000000     4.454000000
O    -2.240000000     5.219000000     3.967000000
H    -1.963000000     4.886000000     3.113000000
H    -2.080000000     4.494000000     4.570000000
O     5.396000000     2.492000000    -1.119000000
H     6.111000000     2.856000000    -1.642000000
H     5.437000000     2.972000000    -0.291000000
O     0.180000000    -3.131000000     5.604000000
H     0.269000000    -2.427000000     4.960000000
H     1.075000000    -3.437000000     5.749000000
O    -1.436000000     2.689000000    -3.726000000
H    -1.548000000     2.443000000    -4.644000000
H    -2.202000000     3.227000000    -3.527000000
O    -4.430000000     0.068000000    -5.112000000
H    -3.997000000     0.893000000    -5.330000000
H    -3.713000000    -0.530000000    -4.902000000
O    -4.261000000     2.370000000    -0.701000000
H    -4.298000000     1.439000000    -0.922000000
H    -5.129000000     2.567000000    -0.349000000
O     2.934000000     3.327000000     6.755000000
H     2.573000000     3.200000000     5.878000000
H     3.846000000     3.576000000     6.604000000
O     5.244000000    -3.750000000     0.117000000
H     4.408000000    -4.216000000     0.134000000
H     5.767000000    -4.221000000    -0.531000000
O     3.057000000     0.659000000    -3.975000000
H     3.267000000    -0.076000000    -4.551000000
H     2.113000000     0.783000000    -4.080000000
O    -6.225000000    -0.551000000    -1.005000000
H    -5.276000000    -0.430000000    -1.005000000
H    -6.373000000    -1.290000000    -0.415000000
O     2.881000000    -1.647000000    -5.670000000
H     3.401000000    -2.449000000    -5.625000000
H     2.058000000    -1.871000000    -5.236000000
O    -1.649000000     4.103000000     1.497000000
H    -2.580000000     3.882000000     1.501000000
H    -1.449000000     4.281000000     0.578000000
O    -4.131000000     1.530000000     3.215000000
H    -4.716000000     1.158000000     2.555000000
H    -3.532000000     0.816000000     3.433000000
O    -2.282000000     3.998000000    -1.175000000
H    -1.860000000     3.560000000    -1.913000000
H    -2.945000000     3.377000000    -0.875000000
O     5.663000000    -0.220000000    -0.703000000
H     5.503000000     0.691000000    -0.951000000
H     5.516000000    -0.717000000    -1.507000000
O    -4.002000000    -1.878000000     1.700000000
H    -3.898000000    -1.355000000     0.905000000
H    -3.178000000    -1.761000000     2.172000000
O     2.740000000     2.243000000    -1.852000000
H     3.651000000     2.413000000    -1.611000000
H     2.784000000     1.491000000    -2.442000000
