161
-3067.55097
C     0.337000000     1.144000000     0.897000000
H     0.525000000     1.855000000     1.698000000
C    -0.211000000    -0.087000000     1.299000000
H    -0.485000000    -0.298000000     2.329000000
C    -0.432000000    -1.111000000     0.374000000
C    -1.072000000    -2.423000000     0.814000000
H    -1.306000000    -3.011000000    -0.077000000
H    -0.413000000    -2.949000000     1.508000000
H    -2.048000000    -2.250000000     1.273000000
C    -0.028000000    -0.895000000    -1.031000000
H    -0.196000000    -1.708000000    -1.732000000
C     0.439000000     0.364000000    -1.417000000
H     0.702000000     0.526000000    -2.459000000
C     0.648000000     1.389000000    -0.439000000
C     1.080000000     2.773000000    -0.883000000
O     1.016000000     3.062000000    -2.063000000
O     1.443000000     3.620000000    -0.084000000
O    -3.080000000    -6.132000000     1.488000000
H    -3.562000000    -5.475000000     1.991000000
H    -2.159000000    -5.945000000     1.672000000
O    -2.188000000     1.681000000     4.094000000
H    -1.601000000     2.307000000     3.671000000
H    -1.948000000     1.716000000     5.020000000
O    -4.189000000    -0.748000000    -0.562000000
H    -4.102000000    -0.421000000     0.333000000
H    -3.586000000    -0.208000000    -1.074000000
O    -0.006000000    -3.606000000     6.033000000
H    -0.473000000    -2.771000000     6.060000000
H    -0.194000000    -4.013000000     6.878000000
O     2.784000000     3.753000000    -6.786000000
H     1.908000000     3.970000000    -6.468000000
H     3.273000000     3.516000000    -5.998000000
O     2.317000000    -3.700000000     4.625000000
H     2.458000000    -4.455000000     4.054000000
H     1.652000000    -3.993000000     5.249000000
O    -2.412000000     3.848000000    -1.039000000
H    -2.368000000     2.906000000    -1.205000000
H    -1.750000000     4.224000000    -1.619000000
O     2.870000000    -5.686000000     2.654000000
H     2.978000000    -5.646000000     1.704000000
H     2.681000000    -6.607000000     2.835000000
O     3.049000000     6.162000000    -3.375000000
H     2.232000000     6.280000000    -3.861000000
H     3.735000000     6.388000000    -4.003000000
O    -2.787000000    -1.456000000     4.071000000
H    -2.139000000    -2.155000000     4.154000000
H    -2.269000000    -0.652000000     4.029000000
O     6.066000000     5.103000000     0.058000000
H     5.381000000     4.456000000    -0.113000000
H     6.880000000     4.656000000    -0.174000000
O     1.959000000     3.783000000     5.756000000
H     2.666000000     4.285000000     5.351000000
H     2.224000000     2.869000000     5.651000000
O    -0.137000000    -2.290000000    -4.951000000
H    -0.753000000    -1.650000000    -4.596000000
H    -0.643000000    -2.772000000    -5.606000000
O     0.904000000     6.069000000    -5.122000000
H     1.122000000     6.849000000    -5.632000000
H     0.339000000     5.555000000    -5.699000000
O    -0.244000000     3.795000000     4.121000000
H    -0.971000000     4.124000000     4.650000000
H     0.442000000     3.591000000     4.757000000
O    -0.216000000     7.228000000    -0.192000000
H    -0.170000000     6.911000000    -1.094000000
H    -0.010000000     6.461000000     0.342000000
O    -0.864000000     2.080000000    -4.047000000
H    -1.456000000     2.814000000    -4.209000000
H    -0.297000000     2.381000000    -3.338000000
O     0.291000000    -5.572000000    -0.490000000
H     1.015000000    -6.109000000    -0.812000000
H     0.375000000    -4.746000000    -0.966000000
O     2.169000000    -1.308000000     3.724000000
H     2.497000000    -2.163000000     4.003000000
H     1.219000000    -1.376000000     3.814000000
O    -2.981000000     1.070000000    -2.136000000
H    -2.271000000     0.539000000    -2.496000000
H    -3.481000000     1.352000000    -2.903000000
O    -2.200000000    -0.865000000    -4.334000000
H    -3.130000000    -1.081000000    -4.253000000
H    -2.144000000    -0.341000000    -5.132000000
O     0.502000000     5.277000000     1.860000000
H     1.110000000     4.876000000     1.239000000
H     0.458000000     4.655000000     2.587000000
O    -4.148000000    -4.745000000    -3.320000000
H    -4.876000000    -4.182000000    -3.057000000
H    -3.594000000    -4.800000000    -2.541000000
O     3.590000000     8.407000000    -0.006000000
H     3.177000000     7.598000000    -0.309000000
H     3.326000000     9.066000000    -0.647000000
O    -0.188000000    -0.398000000     5.566000000
H     0.670000000    -0.379000000     5.991000000
H    -0.744000000     0.145000000     6.125000000
O    -4.370000000    -3.506000000     0.060000000
H    -4.206000000    -2.609000000    -0.231000000
H    -4.443000000    -3.438000000     1.012000000
O     3.774000000     1.076000000    -0.564000000
H     3.060000000     0.487000000    -0.318000000
H     4.551000000     0.517000000    -0.578000000
O    -3.365000000     0.889000000     1.458000000
H    -2.413000000     0.922000000     1.357000000
H    -3.509000000     0.982000000     2.400000000
O     0.475000000    -4.096000000    -2.670000000
H     1.425000000    -4.020000000    -2.583000000
H     0.250000000    -3.488000000    -3.374000000
O     2.848000000    -1.751000000     0.948000000
H     2.483000000    -1.668000000     1.829000000
H     3.766000000    -1.495000000     1.044000000
O     4.677000000     3.321000000    -2.017000000
H     4.425000000     2.446000000    -1.724000000
H     4.150000000     3.472000000    -2.802000000
O     2.953000000    -4.105000000    -0.817000000
H     3.867000000    -3.904000000    -1.018000000
H     2.732000000    -3.519000000    -0.094000000
O     3.485000000     0.245000000    -6.905000000
H     2.872000000     0.635000000    -6.281000000
H     3.243000000    -0.681000000    -6.930000000
O    -4.819000000    -2.454000000     2.851000000
H    -4.019000000    -1.994000000     3.105000000
H    -4.781000000    -3.282000000     3.329000000
O     2.564000000     5.960000000    -0.571000000
H     2.577000000     5.924000000    -1.527000000
H     2.297000000     5.081000000    -0.302000000
O     2.452000000    -1.768000000    -4.617000000
H     2.970000000    -2.572000000    -4.581000000
H     1.552000000    -2.068000000    -4.747000000
O     2.503000000     1.418000000     4.750000000
H     2.164000000     0.576000000     4.445000000
H     3.151000000     1.668000000     4.092000000
O    -2.205000000    -5.914000000    -1.240000000
H    -1.292000000    -5.780000000    -0.985000000
H    -2.676000000    -5.994000000    -0.410000000
O     3.973000000     4.263000000     3.825000000
H     3.389000000     3.894000000     3.163000000
H     4.724000000     3.669000000     3.840000000
O     0.047000000     3.749000000    -6.606000000
H     0.054000000     3.100000000    -5.903000000
H    -0.333000000     3.287000000    -7.354000000
O    -0.221000000     5.439000000    -2.392000000
H     0.192000000     5.678000000    -3.222000000
H     0.396000000     4.832000000    -1.983000000
O    -0.133000000    -6.650000000    -3.349000000
H    -1.037000000    -6.755000000    -3.049000000
H     0.056000000    -5.721000000    -3.218000000
O     0.969000000     0.591000000    -5.461000000
H     0.209000000     0.894000000    -4.965000000
H     1.405000000    -0.029000000    -4.877000000
O    -1.628000000    -4.062000000     3.924000000
H    -1.324000000    -4.798000000     3.392000000
H    -1.009000000    -4.022000000     4.653000000
O    -2.641000000     5.152000000     1.493000000
H    -2.622000000     4.584000000     0.723000000
H    -1.719000000     5.298000000     1.705000000
O     3.081000000     2.588000000     1.800000000
H     2.601000000     3.245000000     1.296000000
H     3.417000000     1.979000000     1.142000000
O     2.790000000     3.682000000    -3.951000000
H     2.052000000     3.347000000    -3.441000000
H     2.887000000     4.590000000    -3.663000000
O    -0.505000000    -5.890000000     2.213000000
H    -0.220000000    -6.802000000     2.274000000
H    -0.285000000    -5.631000000     1.318000000
