161
-3037.61892
C     0.249000000    -0.845000000     1.233000000
H     0.386000000    -1.539000000     2.059000000
C    -0.745000000    -1.063000000     0.283000000
H    -1.378000000    -1.925000000     0.475000000
C    -0.918000000    -0.168000000    -0.757000000
C    -1.922000000    -0.366000000    -1.770000000
H    -1.671000000    -0.005000000    -2.770000000
H    -2.204000000    -1.411000000    -1.912000000
H    -2.859000000     0.103000000    -1.462000000
C    -0.064000000     0.962000000    -0.974000000
H    -0.258000000     1.723000000    -1.725000000
C     0.955000000     1.111000000    -0.062000000
H     1.595000000     1.979000000    -0.196000000
C     1.162000000     0.162000000     0.992000000
C     2.244000000     0.409000000     1.957000000
O     2.745000000     1.479000000     2.154000000
O     2.688000000    -0.610000000     2.481000000
O     0.355000000    -2.162000000     7.280000000
H     0.005000000    -2.603000000     6.506000000
H    -0.370000000    -2.165000000     7.905000000
O     1.761000000    -0.939000000    -2.094000000
H     1.195000000    -0.238000000    -1.772000000
H     1.428000000    -1.730000000    -1.670000000
O    -1.717000000    -4.256000000     0.167000000
H    -1.728000000    -5.200000000     0.008000000
H    -2.467000000    -3.921000000    -0.324000000
O     2.585000000     3.711000000    -2.133000000
H     2.360000000     2.934000000    -2.645000000
H     1.764000000     4.198000000    -2.062000000
O     6.387000000     1.003000000     0.629000000
H     6.647000000     1.922000000     0.689000000
H     5.454000000     1.031000000     0.419000000
O    -4.624000000     3.795000000    -2.492000000
H    -4.051000000     4.447000000    -2.088000000
H    -4.550000000     3.960000000    -3.431000000
O     5.502000000     2.848000000     4.451000000
H     4.644000000     2.727000000     4.857000000
H     6.074000000     2.233000000     4.911000000
O    -0.500000000     3.709000000     2.138000000
H    -0.980000000     4.529000000     2.260000000
H     0.341000000     3.858000000     2.570000000
O     1.721000000     0.280000000     7.219000000
H     1.336000000    -0.592000000     7.139000000
H     1.752000000     0.611000000     6.322000000
O     1.512000000    -1.351000000    -5.200000000
H     1.881000000    -1.918000000    -5.876000000
H     1.799000000    -1.744000000    -4.375000000
O     0.642000000     5.492000000    -4.200000000
H    -0.061000000     6.020000000    -4.579000000
H     1.136000000     6.105000000    -3.657000000
O    -3.871000000    -2.406000000    -3.913000000
H    -3.080000000    -2.242000000    -4.426000000
H    -4.396000000    -1.613000000    -4.022000000
O    -6.921000000    -0.966000000    -2.275000000
H    -6.537000000    -0.765000000    -3.129000000
H    -6.169000000    -1.146000000    -1.711000000
O    -0.045000000     3.575000000     5.431000000
H    -0.074000000     3.359000000     6.363000000
H     0.406000000     2.834000000     5.027000000
O     2.961000000    -5.443000000     0.502000000
H     3.622000000    -5.938000000     0.985000000
H     3.174000000    -4.526000000     0.675000000
O    -1.551000000     0.340000000     5.024000000
H    -1.244000000    -0.565000000     5.082000000
H    -1.401000000     0.585000000     4.110000000
O     4.644000000    -1.406000000     6.924000000
H     4.617000000    -1.031000000     6.044000000
H     5.223000000    -2.165000000     6.843000000
O    -1.420000000     1.150000000     2.487000000
H    -1.313000000     2.057000000     2.201000000
H    -1.096000000     0.627000000     1.754000000
O    -5.185000000    -1.719000000    -0.482000000
H    -4.781000000    -2.576000000    -0.614000000
H    -5.592000000    -1.777000000     0.383000000
O    -1.386000000    -0.812000000    -5.593000000
H    -1.799000000    -1.271000000    -6.324000000
H    -0.447000000    -0.941000000    -5.729000000
O    -5.744000000     1.723000000    -1.224000000
H    -5.256000000     2.352000000    -1.757000000
H    -5.491000000     0.868000000    -1.571000000
O     2.508000000     4.194000000     2.320000000
H     3.411000000     4.426000000     2.104000000
H     2.452000000     3.255000000     2.141000000
O    -4.199000000    -0.805000000     1.955000000
H    -3.726000000    -0.872000000     1.125000000
H    -4.344000000    -1.712000000     2.222000000
O    -0.870000000     3.050000000    -4.169000000
H    -0.234000000     2.622000000    -4.742000000
H    -0.387000000     3.778000000    -3.777000000
O     4.547000000    -3.976000000     4.816000000
H     5.184000000    -3.680000000     4.166000000
H     5.075000000    -4.393000000     5.497000000
O     0.787000000    -6.042000000     2.321000000
H     1.520000000    -5.991000000     2.934000000
H     1.187000000    -5.929000000     1.459000000
O    -0.950000000    -5.482000000    -3.119000000
H    -1.083000000    -5.556000000    -2.174000000
H    -1.638000000    -4.884000000    -3.411000000
O     3.672000000     0.728000000    -3.102000000
H     2.907000000     0.164000000    -2.984000000
H     3.968000000     0.918000000    -2.212000000
O     0.938000000     1.453000000    -5.321000000
H     1.015000000     0.600000000    -4.893000000
H     1.412000000     1.351000000    -6.147000000
O    -3.797000000    -3.881000000    -1.505000000
H    -4.101000000    -3.531000000    -2.342000000
H    -4.368000000    -4.631000000    -1.337000000
O     1.034000000     5.882000000     4.439000000
H     0.441000000     5.297000000     4.910000000
H     1.516000000     5.307000000     3.845000000
O    -2.914000000     1.272000000    -4.920000000
H    -2.318000000     0.648000000    -5.334000000
H    -2.339000000     1.941000000    -4.547000000
O     5.187000000     4.137000000    -2.835000000
H     5.682000000     3.697000000    -2.144000000
H     4.285000000     4.146000000    -2.515000000
O    -5.288000000    -0.020000000    -4.422000000
H    -4.523000000     0.448000000    -4.756000000
H    -6.028000000     0.365000000    -4.890000000
O     5.279000000     3.924000000     1.923000000
H     5.317000000     3.274000000     2.625000000
H     6.159000000     3.922000000     1.547000000
O    -0.744000000    -3.955000000     2.574000000
H    -0.150000000    -4.693000000     2.713000000
H    -1.148000000    -4.130000000     1.724000000
O     2.263000000    -2.232000000     4.562000000
H     3.038000000    -2.622000000     4.966000000
H     2.591000000    -1.817000000     3.764000000
O    -3.213000000    -4.268000000     3.755000000
H    -2.386000000    -3.970000000     3.377000000
H    -3.104000000    -5.213000000     3.857000000
O     3.394000000    -2.570000000     0.356000000
H     3.050000000    -1.923000000     0.972000000
H     4.293000000    -2.286000000     0.188000000
O    -0.338000000    -2.355000000     4.688000000
H    -0.430000000    -2.988000000     3.976000000
H     0.606000000    -2.226000000     4.774000000
O     2.688000000     6.644000000     0.328000000
H     2.404000000     5.751000000     0.522000000
H     3.549000000     6.539000000    -0.076000000
O     1.037000000    -3.341000000    -1.132000000
H     0.302000000    -3.419000000    -0.523000000
H     1.814000000    -3.469000000    -0.588000000
O     4.027000000     1.743000000    -0.553000000
H     3.506000000     2.535000000    -0.683000000
H     3.749000000     1.411000000     0.301000000
O     1.883000000     1.706000000     4.607000000
H     1.439000000     0.878000000     4.425000000
H     2.426000000     1.862000000     3.835000000
O    -5.235000000    -3.478000000     1.746000000
H    -4.444000000    -3.940000000     2.025000000
H    -5.898000000    -4.165000000     1.670000000
O     6.285000000    -2.946000000     2.931000000
H     5.783000000    -2.566000000     2.211000000
H     6.836000000    -2.229000000     3.244000000
O     4.714000000    -0.007000000     4.446000000
H     4.285000000     0.240000000     3.626000000
H     5.649000000     0.074000000     4.260000000
O    -0.067000000     4.367000000    -1.317000000
H    -0.646000000     4.225000000    -0.568000000
H    -0.466000000     5.096000000    -1.792000000
