161
-3058.08670
C    -0.982000000     0.074000000    -1.072000000
H    -1.597000000     0.270000000    -1.947000000
C     0.122000000    -0.741000000    -1.127000000
H     0.332000000    -1.255000000    -2.061000000
C     0.939000000    -0.756000000    -0.050000000
C     2.232000000    -1.542000000    -0.039000000
H     2.079000000    -2.604000000    -0.247000000
H     2.873000000    -1.157000000    -0.835000000
H     2.746000000    -1.347000000     0.904000000
C     0.654000000    -0.024000000     1.068000000
H     1.413000000     0.095000000     1.837000000
C    -0.484000000     0.682000000     1.146000000
H    -0.735000000     1.258000000     2.034000000
C    -1.317000000     0.827000000     0.083000000
C    -2.464000000     1.809000000     0.111000000
O    -2.747000000     2.488000000     1.136000000
O    -3.056000000     1.931000000    -0.937000000
O    -1.963000000    -3.670000000    -3.991000000
H    -1.472000000    -3.690000000    -4.813000000
H    -2.842000000    -3.965000000    -4.230000000
O     2.110000000     2.743000000     1.830000000
H     1.612000000     2.045000000     2.257000000
H     2.922000000     2.800000000     2.333000000
O     4.781000000    -2.838000000    -1.615000000
H     4.963000000    -3.444000000    -2.333000000
H     4.736000000    -1.978000000    -2.032000000
O     1.492000000     2.254000000    -3.272000000
H     1.904000000     1.845000000    -2.511000000
H     0.563000000     2.297000000    -3.048000000
O    -0.742000000    -4.475000000     1.536000000
H    -0.492000000    -4.287000000     0.631000000
H    -0.312000000    -3.791000000     2.050000000
O    -0.534000000    -3.700000000    -1.442000000
H    -0.999000000    -3.668000000    -2.278000000
H    -0.251000000    -2.798000000    -1.291000000
O     2.250000000    -2.014000000    -3.671000000
H     1.845000000    -1.439000000    -4.321000000
H     2.845000000    -1.444000000    -3.184000000
O     0.210000000    -2.565000000     3.284000000
H     0.670000000    -1.750000000     3.487000000
H     0.333000000    -3.109000000     4.061000000
O     1.698000000    -0.949000000    -6.187000000
H     1.507000000    -1.149000000    -7.104000000
H     2.061000000    -0.064000000    -6.206000000
O    -2.032000000     1.761000000     5.504000000
H    -2.692000000     1.864000000     4.819000000
H    -2.395000000     2.225000000     6.258000000
O    -0.816000000     4.181000000     3.676000000
H    -1.725000000     3.905000000     3.795000000
H    -0.299000000     3.411000000     3.914000000
O    -4.757000000    -1.349000000    -3.359000000
H    -5.713000000    -1.320000000    -3.399000000
H    -4.535000000    -0.847000000    -2.575000000
O     0.859000000    -6.253000000    -0.812000000
H     0.290000000    -5.706000000    -1.354000000
H     1.477000000    -5.638000000    -0.418000000
O    -2.675000000     2.315000000    -5.357000000
H    -3.546000000     1.958000000    -5.182000000
H    -2.280000000     1.693000000    -5.968000000
O     2.805000000    -2.874000000     5.650000000
H     3.131000000    -3.135000000     4.789000000
H     2.489000000    -1.979000000     5.526000000
O     4.532000000    -0.407000000    -2.907000000
H     5.077000000     0.225000000    -2.438000000
H     4.481000000    -0.064000000    -3.799000000
O     0.617000000     1.970000000     4.554000000
H     1.039000000     2.312000000     5.343000000
H    -0.303000000     1.871000000     4.798000000
O    -5.144000000    -0.019000000     2.571000000
H    -5.685000000     0.409000000     3.234000000
H    -4.252000000     0.270000000     2.766000000
O    -5.455000000     3.717000000     0.262000000
H    -6.008000000     2.956000000     0.091000000
H    -4.564000000     3.368000000     0.275000000
O    -4.578000000     4.783000000    -4.161000000
H    -5.148000000     4.856000000    -3.396000000
H    -4.637000000     3.862000000    -4.416000000
O     4.059000000     2.233000000     4.018000000
H     4.675000000     2.043000000     3.311000000
H     4.592000000     2.208000000     4.813000000
O    -0.271000000     4.990000000    -2.463000000
H     0.135000000     4.875000000    -1.605000000
H    -0.794000000     4.198000000    -2.589000000
O    -4.426000000    -0.438000000    -0.943000000
H    -3.670000000    -0.953000000    -0.663000000
H    -4.133000000     0.471000000    -0.881000000
O     3.873000000    -3.912000000     3.213000000
H     4.164000000    -4.764000000     3.537000000
H     3.723000000    -4.051000000     2.278000000
O     5.707000000    -1.954000000     0.831000000
H     5.176000000    -2.542000000     1.368000000
H     5.684000000    -2.343000000    -0.044000000
O    -3.685000000    -0.873000000    -6.321000000
H    -4.330000000    -1.452000000    -6.728000000
H    -3.750000000    -1.062000000    -5.385000000
O    -5.664000000     1.988000000    -4.960000000
H    -6.349000000     1.394000000    -5.267000000
H    -5.888000000     2.160000000    -4.045000000
O    -3.787000000     5.697000000     1.881000000
H    -4.033000000     4.870000000     1.468000000
H    -2.837000000     5.743000000     1.779000000
O    -3.564000000     2.787000000     3.599000000
H    -3.338000000     2.582000000     2.692000000
H    -4.363000000     3.310000000     3.535000000
O    -4.644000000     6.880000000    -0.754000000
H    -4.667000000     6.062000000    -0.256000000
H    -3.781000000     6.884000000    -1.168000000
O    -2.891000000    -0.985000000     3.914000000
H    -1.998000000    -0.642000000     3.887000000
H    -3.010000000    -1.272000000     4.819000000
O    -5.237000000     2.504000000    -2.312000000
H    -6.009000000     2.227000000    -1.820000000
H    -4.496000000     2.180000000    -1.799000000
O     4.770000000    -3.592000000    -4.332000000
H     4.275000000    -4.200000000    -4.882000000
H     4.213000000    -2.816000000    -4.273000000
O     4.663000000     3.735000000    -1.848000000
H     4.059000000     3.112000000    -1.444000000
H     4.323000000     3.857000000    -2.735000000
O     4.256000000    -4.521000000     0.558000000
H     4.717000000    -5.318000000     0.296000000
H     4.400000000    -3.912000000    -0.166000000
O     2.232000000    -4.709000000    -4.865000000
H     2.007000000    -3.906000000    -4.394000000
H     1.448000000    -5.253000000    -4.799000000
O     2.863000000     2.029000000    -0.931000000
H     2.277000000     2.265000000    -0.212000000
H     3.668000000     1.744000000    -0.500000000
O    -1.474000000     2.704000000    -3.010000000
H    -2.124000000     2.295000000    -2.439000000
H    -1.755000000     2.474000000    -3.896000000
O    -6.355000000     3.322000000     3.344000000
H    -6.848000000     3.155000000     2.541000000
H    -6.344000000     2.479000000     3.797000000
O     0.991000000     4.710000000    -0.067000000
H     1.171000000     3.943000000     0.478000000
H     1.856000000     5.065000000    -0.272000000
O     1.765000000    -0.554000000     4.256000000
H     1.400000000     0.253000000     4.620000000
H     2.328000000    -0.260000000     3.540000000
O     7.200000000    -0.201000000    -1.261000000
H     7.908000000    -0.593000000    -0.751000000
H     6.622000000     0.191000000    -0.606000000
O    -2.591000000    -2.414000000     0.018000000
H    -2.071000000    -3.127000000    -0.353000000
H    -1.989000000    -1.958000000     0.605000000
O     5.195000000     1.162000000     0.569000000
H     5.338000000     0.445000000     1.186000000
H     5.475000000     1.946000000     1.043000000
O    -2.603000000     6.449000000    -2.676000000
H    -1.698000000     6.138000000    -2.698000000
H    -3.092000000     5.801000000    -3.183000000
O    -6.811000000     1.236000000    -0.051000000
H    -6.684000000     0.672000000    -0.814000000
H    -6.446000000     0.737000000     0.679000000
O    -1.279000000     5.565000000     1.464000000
H    -1.151000000     4.977000000     2.209000000
H    -0.593000000     5.317000000     0.844000000
O     5.058000000    -0.348000000     3.010000000
H     6.004000000    -0.462000000     2.922000000
H     4.703000000    -1.236000000     2.954000000
