161
-3043.61004
C    -0.644000000     0.523000000    -1.164000000
H    -0.956000000     0.902000000    -2.134000000
C     0.396000000    -0.409000000    -1.157000000
H     0.756000000    -0.637000000    -2.157000000
C     0.890000000    -0.865000000     0.035000000
C     2.196000000    -1.684000000     0.018000000
H     2.862000000    -1.213000000     0.743000000
H     2.007000000    -2.707000000     0.350000000
H     2.668000000    -1.605000000    -0.964000000
C     0.331000000    -0.437000000     1.209000000
H     0.720000000    -0.854000000     2.134000000
C    -0.784000000     0.368000000     1.206000000
H    -1.291000000     0.627000000     2.132000000
C    -1.228000000     1.011000000    -0.011000000
C    -2.306000000     2.122000000    -0.032000000
O    -2.905000000     2.405000000     0.958000000
O    -2.704000000     2.457000000    -1.169000000
O    -1.157000000    -0.179000000    -4.426000000
H    -0.891000000    -0.581000000    -5.253000000
H    -1.903000000     0.374000000    -4.658000000
O     3.129000000     2.054000000     1.608000000
H     2.198000000     1.839000000     1.549000000
H     3.148000000     2.933000000     1.985000000
O    -3.509000000    -1.681000000     6.031000000
H    -2.976000000    -1.725000000     6.825000000
H    -2.998000000    -1.140000000     5.429000000
O     2.408000000    -4.651000000     1.847000000
H     2.445000000    -5.561000000     2.143000000
H     3.320000000    -4.362000000     1.844000000
O    -2.992000000     2.456000000     5.610000000
H    -2.940000000     3.072000000     4.879000000
H    -2.406000000     2.821000000     6.273000000
O     0.036000000    -4.204000000     0.438000000
H     0.720000000    -4.163000000    -0.231000000
H     0.508000000    -4.381000000     1.252000000
O     0.639000000    -2.105000000    -3.955000000
H    -0.063000000    -1.460000000    -3.866000000
H     1.293000000    -1.673000000    -4.504000000
O     2.544000000    -0.766000000    -5.463000000
H     2.649000000    -0.926000000    -6.401000000
H     3.175000000    -0.074000000    -5.266000000
O    -1.767000000    -2.358000000     3.377000000
H    -2.128000000    -1.487000000     3.543000000
H    -0.836000000    -2.205000000     3.216000000
O    -2.635000000     0.154000000     4.388000000
H    -2.832000000     0.932000000     4.910000000
H    -3.209000000     0.227000000     3.625000000
O    -1.917000000     5.760000000     3.152000000
H    -2.457000000     4.982000000     3.290000000
H    -1.455000000     5.881000000     3.981000000
O     3.844000000    -3.352000000    -2.680000000
H     4.418000000    -2.864000000    -2.089000000
H     3.191000000    -3.750000000    -2.104000000
O    -4.130000000     2.541000000    -4.889000000
H    -4.325000000     2.101000000    -4.061000000
H    -4.470000000     1.949000000    -5.560000000
O     0.710000000    -3.182000000     3.687000000
H     0.265000000    -4.028000000     3.726000000
H     1.497000000    -3.349000000     3.168000000
O     1.062000000     1.910000000     4.886000000
H     0.890000000     1.855000000     5.826000000
H     1.488000000     2.758000000     4.769000000
O    -4.157000000     0.662000000     2.386000000
H    -3.682000000     1.317000000     1.875000000
H    -4.233000000    -0.091000000     1.799000000
O    -4.883000000     4.185000000     0.119000000
H    -5.658000000     3.624000000     0.094000000
H    -4.146000000     3.580000000     0.029000000
O    -1.803000000     6.418000000    -3.194000000
H    -2.249000000     7.041000000    -3.767000000
H    -1.890000000     5.576000000    -3.641000000
O     4.166000000    -3.055000000     4.914000000
H     4.505000000    -2.172000000     5.059000000
H     4.074000000    -3.123000000     3.963000000
O     0.149000000    -2.758000000     6.354000000
H    -0.575000000    -3.358000000     6.176000000
H     0.503000000    -2.549000000     5.490000000
O     4.168000000    -6.455000000     0.257000000
H     3.931000000    -7.224000000     0.775000000
H     5.122000000    -6.493000000     0.193000000
O     2.122000000    -5.065000000    -1.270000000
H     2.284000000    -5.872000000    -1.758000000
H     2.603000000    -5.180000000    -0.450000000
O     0.593000000     2.838000000    -3.424000000
H     0.472000000     1.993000000    -2.990000000
H    -0.294000000     3.125000000    -3.640000000
O    -4.704000000     1.515000000    -2.489000000
H    -4.653000000     0.562000000    -2.565000000
H    -4.074000000     1.735000000    -1.803000000
O     4.512000000    -2.790000000     2.375000000
H     5.424000000    -3.078000000     2.419000000
H     4.373000000    -2.573000000     1.453000000
O     5.460000000    -2.185000000    -0.518000000
H     5.641000000    -1.251000000    -0.415000000
H     6.125000000    -2.491000000    -1.135000000
O    -6.033000000     2.169000000     3.405000000
H    -5.909000000     2.094000000     4.351000000
H    -5.300000000     1.684000000     3.027000000
O    -2.995000000     7.284000000     1.346000000
H    -2.812000000     6.691000000     0.617000000
H    -2.427000000     6.978000000     2.053000000
O    -3.536000000     3.588000000     3.166000000
H    -3.094000000     3.236000000     2.393000000
H    -4.464000000     3.412000000     3.011000000
O    -5.594000000     6.901000000    -0.335000000
H    -5.046000000     7.413000000     0.259000000
H    -5.269000000     6.005000000    -0.248000000
O    -2.413000000    -2.665000000    -0.262000000
H    -1.870000000    -1.911000000    -0.493000000
H    -1.786000000    -3.359000000    -0.060000000
O    -7.018000000     2.926000000    -2.663000000
H    -6.323000000     2.298000000    -2.467000000
H    -7.355000000     3.186000000    -1.806000000
O    -2.496000000    -5.622000000     0.424000000
H    -2.413000000    -6.572000000     0.509000000
H    -1.612000000    -5.322000000     0.212000000
O     6.667000000    -4.023000000    -2.547000000
H     5.817000000    -4.199000000    -2.950000000
H     7.293000000    -4.504000000    -3.089000000
O     3.410000000    -4.018000000    -5.325000000
H     2.908000000    -3.330000000    -5.762000000
H     3.455000000    -3.738000000    -4.411000000
O     4.279000000     1.039000000    -4.575000000
H     4.242000000     1.415000000    -3.696000000
H     5.072000000     0.504000000    -4.574000000
O    -1.987000000     3.311000000    -3.373000000
H    -2.191000000     3.013000000    -2.487000000
H    -2.820000000     3.261000000    -3.840000000
O    -5.721000000     5.437000000     3.050000000
H    -5.234000000     6.242000000     2.873000000
H    -5.490000000     4.854000000     2.326000000
O     3.212000000     2.110000000    -1.760000000
H     3.415000000     3.045000000    -1.786000000
H     2.261000000     2.068000000    -1.861000000
O     3.117000000     0.449000000     3.755000000
H     2.236000000     0.627000000     4.086000000
H     3.193000000     0.993000000     2.971000000
O     7.239000000    -0.307000000    -1.869000000
H     7.919000000    -0.154000000    -1.213000000
H     6.483000000     0.186000000    -1.550000000
O    -4.178000000    -1.043000000    -2.920000000
H    -4.302000000    -1.834000000    -2.395000000
H    -3.228000000    -0.960000000    -3.006000000
O    -4.711000000    -1.222000000     0.637000000
H    -4.171000000    -1.891000000     0.217000000
H    -5.402000000    -1.039000000     0.001000000
O     5.233000000     0.823000000    -0.401000000
H     5.292000000     1.521000000     0.251000000
H     4.536000000     1.106000000    -0.993000000
O    -2.027000000     5.799000000    -0.468000000
H    -1.800000000     4.871000000    -0.529000000
H    -1.993000000     6.113000000    -1.372000000
O     0.118000000    -4.693000000    -3.398000000
H     0.306000000    -3.810000000    -3.718000000
H     0.095000000    -4.602000000    -2.445000000
O    -7.237000000     2.665000000     0.370000000
H    -8.166000000     2.463000000     0.482000000
H    -6.807000000     2.229000000     1.106000000
O     6.091000000     0.244000000     3.120000000
H     5.531000000    -0.342000000     2.610000000
H     5.897000000     0.027000000     4.031000000
