161
-3030.72812
C     1.397000000    -0.134000000    -0.548000000
H     2.365000000    -0.446000000    -0.931000000
C     0.351000000    -1.152000000    -0.547000000
H     0.571000000    -2.097000000    -1.037000000
C    -0.868000000    -0.867000000     0.028000000
C    -2.031000000    -1.872000000     0.025000000
H    -1.801000000    -2.937000000     0.098000000
H    -2.710000000    -1.657000000     0.854000000
H    -2.550000000    -1.886000000    -0.936000000
C    -1.088000000     0.443000000     0.530000000
H    -2.077000000     0.636000000     0.938000000
C    -0.183000000     1.431000000     0.388000000
H    -0.395000000     2.440000000     0.731000000
C     1.123000000     1.132000000    -0.073000000
C     2.332000000     2.098000000     0.054000000
O     2.137000000     3.276000000    -0.012000000
O     3.419000000     1.584000000     0.431000000
O    -4.201000000     0.343000000    -4.087000000
H    -3.334000000     0.103000000    -3.759000000
H    -4.480000000     1.063000000    -3.521000000
O    -3.464000000     2.486000000     0.008000000
H    -3.765000000     2.736000000     0.881000000
H    -3.722000000     1.569000000    -0.082000000
O    -4.767000000     2.679000000    -2.421000000
H    -4.143000000     3.032000000    -3.055000000
H    -4.254000000     2.557000000    -1.623000000
O     3.202000000    -5.444000000    -2.020000000
H     3.398000000    -5.291000000    -1.095000000
H     2.856000000    -6.336000000    -2.047000000
O     1.610000000    -1.019000000    -4.574000000
H     1.540000000    -1.927000000    -4.277000000
H     2.204000000    -0.608000000    -3.946000000
O     3.732000000     7.486000000    -1.751000000
H     4.522000000     8.019000000    -1.845000000
H     3.998000000     6.762000000    -1.184000000
O    -5.586000000    -5.006000000     0.955000000
H    -5.891000000    -4.102000000     0.883000000
H    -4.731000000    -4.938000000     1.381000000
O     3.475000000    -1.001000000     1.414000000
H     3.681000000    -1.641000000     0.732000000
H     3.329000000    -0.184000000     0.938000000
O     1.966000000     4.525000000     2.633000000
H     2.492000000     3.782000000     2.930000000
H     1.934000000     4.430000000     1.681000000
O    -1.599000000    -0.562000000    -3.485000000
H    -1.891000000    -1.474000000    -3.500000000
H    -1.062000000    -0.495000000    -2.696000000
O     3.015000000     2.771000000    -4.636000000
H     2.959000000     1.821000000    -4.740000000
H     3.169000000     2.900000000    -3.700000000
O    -6.113000000    -2.388000000     0.746000000
H    -5.377000000    -2.247000000     1.342000000
H    -6.844000000    -1.923000000     1.154000000
O    -4.052000000    -4.982000000    -2.033000000
H    -4.082000000    -5.720000000    -1.424000000
H    -4.953000000    -4.888000000    -2.340000000
O     6.276000000     1.603000000     0.614000000
H     5.387000000     1.638000000     0.967000000
H     6.423000000     2.476000000     0.249000000
O    -1.590000000     4.118000000    -1.493000000
H    -1.897000000     3.331000000    -1.044000000
H    -2.125000000     4.824000000    -1.131000000
O     1.833000000    -3.818000000    -3.587000000
H     1.185000000    -4.343000000    -3.117000000
H     2.660000000    -4.003000000    -3.141000000
O     3.666000000     5.586000000    -3.774000000
H     2.967000000     4.932000000    -3.777000000
H     3.410000000     6.208000000    -3.093000000
O    -1.001000000    -5.251000000    -2.058000000
H    -1.896000000    -5.226000000    -1.720000000
H    -0.456000000    -5.008000000    -1.309000000
O    -6.701000000    -4.405000000    -2.735000000
H    -7.568000000    -4.294000000    -3.125000000
H    -6.526000000    -3.570000000    -2.300000000
O    -0.542000000    -3.987000000     3.994000000
H    -0.373000000    -4.567000000     4.737000000
H     0.324000000    -3.814000000     3.624000000
O     3.214000000    -4.423000000     0.628000000
H     3.921000000    -3.905000000     0.242000000
H     3.515000000    -4.613000000     1.517000000
O    -0.186000000     2.023000000     4.723000000
H    -1.118000000     1.865000000     4.873000000
H     0.053000000     1.407000000     4.031000000
O     3.926000000     5.147000000    -0.261000000
H     4.707000000     4.771000000     0.146000000
H     3.233000000     4.512000000    -0.079000000
O     0.850000000     5.187000000    -1.898000000
H    -0.101000000     5.091000000    -1.836000000
H     1.198000000     4.421000000    -1.441000000
O     4.968000000     1.749000000     5.503000000
H     4.790000000     1.417000000     4.623000000
H     4.105000000     1.812000000     5.914000000
O    -4.123000000     2.765000000     3.564000000
H    -4.923000000     2.248000000     3.653000000
H    -3.457000000     2.259000000     4.030000000
O     0.637000000    -4.748000000     0.113000000
H     1.450000000    -4.266000000     0.265000000
H     0.560000000    -5.332000000     0.868000000
O     4.612000000     2.206000000    -1.936000000
H     4.203000000     1.882000000    -1.134000000
H     5.138000000     2.954000000    -1.652000000
O     6.487000000     4.037000000    -0.648000000
H     7.044000000     4.459000000    -1.301000000
H     6.932000000     4.195000000     0.185000000
O    -6.569000000    -1.859000000    -1.707000000
H    -7.504000000    -1.907000000    -1.508000000
H    -6.139000000    -2.203000000    -0.923000000
O     1.919000000     7.908000000     1.003000000
H     2.355000000     8.222000000     1.795000000
H     2.465000000     7.183000000     0.700000000
O    -3.165000000    -2.741000000    -3.574000000
H    -3.850000000    -2.444000000    -4.173000000
H    -3.381000000    -3.656000000    -3.397000000
O    -2.592000000     3.625000000    -3.890000000
H    -2.125000000     3.850000000    -3.086000000
H    -2.520000000     4.408000000    -4.436000000
O     4.040000000    -0.231000000    -3.166000000
H     4.550000000    -0.977000000    -2.851000000
H     4.460000000     0.532000000    -2.769000000
O    -0.045000000     6.042000000     3.960000000
H     0.480000000     5.682000000     3.245000000
H    -0.250000000     6.935000000     3.682000000
O    -2.944000000    -4.408000000     2.487000000
H    -2.003000000    -4.423000000     2.664000000
H    -3.239000000    -3.563000000     2.827000000
O    -2.507000000    -6.052000000     0.463000000
H    -1.734000000    -6.598000000     0.608000000
H    -2.439000000    -5.361000000     1.122000000
O    -4.209000000    -2.070000000     2.753000000
H    -3.451000000    -1.584000000     3.078000000
H    -4.821000000    -2.080000000     3.489000000
O    -4.570000000     0.120000000    -1.085000000
H    -3.840000000    -0.300000000    -1.541000000
H    -5.352000000    -0.243000000    -1.500000000
O     4.605000000    -2.708000000    -0.800000000
H     4.759000000    -2.965000000    -1.709000000
H     5.311000000    -2.093000000    -0.602000000
O     3.481000000     2.184000000     2.951000000
H     3.564000000     2.036000000     2.009000000
H     2.754000000     1.622000000     3.219000000
O     5.174000000    -0.207000000     3.305000000
H     4.640000000    -0.555000000     2.592000000
H     5.925000000     0.196000000     2.868000000
O     6.586000000    -0.923000000    -0.647000000
H     6.251000000    -0.206000000    -0.109000000
H     6.801000000    -0.514000000    -1.485000000
O     1.199000000     0.130000000     2.965000000
H     0.521000000     0.014000000     2.299000000
H     1.659000000    -0.709000000     2.988000000
O    -2.323000000    -1.620000000     5.054000000
H    -1.558000000    -2.117000000     4.764000000
H    -2.770000000    -2.204000000     5.666000000
O     1.968000000    -3.129000000     3.349000000
H     2.201000000    -4.007000000     3.651000000
H     2.569000000    -2.958000000     2.624000000
O    -2.675000000     1.552000000     5.345000000
H    -3.437000000     1.618000000     5.921000000
H    -2.310000000     0.687000000     5.531000000
O     5.502000000     3.801000000     3.609000000
H     5.223000000     4.155000000     4.453000000
H     4.774000000     3.246000000     3.329000000
