161
-3017.40693
C     1.268000000    -0.020000000    -0.672000000
H     2.182000000    -0.164000000    -1.242000000
C     0.479000000    -1.101000000    -0.455000000
H     0.923000000    -2.045000000    -0.760000000
C    -0.777000000    -0.926000000     0.162000000
C    -1.537000000    -2.177000000     0.569000000
H    -0.939000000    -3.088000000     0.638000000
H    -2.000000000    -2.112000000     1.556000000
H    -2.296000000    -2.375000000    -0.191000000
C    -1.195000000     0.331000000     0.547000000
H    -2.104000000     0.325000000     1.143000000
C    -0.412000000     1.448000000     0.323000000
H    -0.748000000     2.439000000     0.620000000
C     0.883000000     1.269000000    -0.287000000
C     1.813000000     2.445000000    -0.604000000
O     1.659000000     3.523000000    -0.028000000
O     2.803000000     2.229000000    -1.320000000
O    -3.993000000     2.538000000    -0.587000000
H    -3.309000000     1.890000000    -0.757000000
H    -4.400000000     2.247000000     0.228000000
O     2.188000000     0.379000000    -5.428000000
H     1.850000000    -0.514000000    -5.489000000
H     3.047000000     0.282000000    -5.016000000
O    -1.983000000    -6.099000000     4.598000000
H    -1.383000000    -5.579000000     5.133000000
H    -2.059000000    -5.610000000     3.779000000
O     4.121000000     7.720000000    -1.362000000
H     4.569000000     7.785000000    -0.519000000
H     3.924000000     6.788000000    -1.457000000
O    -4.550000000    -4.308000000     0.763000000
H    -4.497000000    -3.523000000     1.308000000
H    -4.712000000    -3.976000000    -0.120000000
O     4.119000000     1.438000000     2.128000000
H     4.336000000     0.739000000     1.511000000
H     4.046000000     2.223000000     1.585000000
O     0.440000000     5.574000000    -1.021000000
H     0.642000000     4.674000000    -0.766000000
H     1.126000000     5.805000000    -1.648000000
O    -0.898000000     1.412000000    -2.727000000
H    -1.689000000     1.031000000    -2.347000000
H    -0.190000000     1.114000000    -2.157000000
O     3.998000000     3.034000000    -3.769000000
H     3.530000000     2.751000000    -2.984000000
H     4.186000000     2.223000000    -4.241000000
O    -4.767000000    -1.481000000    -0.127000000
H    -5.681000000    -1.692000000     0.063000000
H    -4.675000000    -0.563000000     0.129000000
O    -3.188000000    -3.044000000    -3.743000000
H    -3.233000000    -3.060000000    -2.787000000
H    -4.051000000    -3.346000000    -4.027000000
O     2.597000000     6.720000000     3.386000000
H     2.732000000     5.918000000     2.881000000
H     1.646000000     6.801000000     3.458000000
O     6.723000000     3.857000000    -1.455000000
H     7.222000000     3.939000000    -2.268000000
H     6.947000000     4.643000000    -0.957000000
O    -2.013000000     4.134000000    -3.523000000
H    -1.747000000     3.443000000    -2.916000000
H    -2.348000000     4.832000000    -2.959000000
O     1.461000000    -2.209000000    -5.220000000
H     0.599000000    -2.164000000    -4.805000000
H     1.665000000    -3.143000000    -5.250000000
O     5.523000000     5.369000000    -3.985000000
H     5.113000000     4.511000000    -3.872000000
H     6.436000000     5.233000000    -3.732000000
O    -0.847000000    -1.323000000    -3.757000000
H    -0.439000000    -0.503000000    -3.480000000
H    -1.778000000    -1.204000000    -3.570000000
O    -0.028000000    -2.677000000     4.129000000
H     0.033000000    -3.557000000     4.502000000
H     0.767000000    -2.583000000     3.605000000
O     1.975000000    -4.793000000    -1.189000000
H     2.190000000    -5.215000000    -0.358000000
H     2.814000000    -4.720000000    -1.645000000
O     1.192000000    -6.146000000     2.594000000
H     1.928000000    -5.712000000     2.163000000
H     1.597000000    -6.694000000     3.267000000
O     3.887000000     4.928000000    -1.331000000
H     4.711000000     4.482000000    -1.525000000
H     3.463000000     4.374000000    -0.675000000
O     2.145000000     5.596000000    -3.347000000
H     2.441000000     5.153000000    -4.142000000
H     2.793000000     5.356000000    -2.684000000
O    -3.578000000     2.936000000     4.012000000
H    -4.210000000     2.907000000     4.731000000
H    -3.443000000     2.019000000     3.775000000
O    -1.074000000    -5.809000000    -1.168000000
H    -0.253000000    -5.424000000    -0.860000000
H    -1.515000000    -6.103000000    -0.371000000
O     5.108000000     0.696000000    -0.450000000
H     4.490000000     1.114000000    -1.050000000
H     5.000000000    -0.242000000    -0.609000000
O    -2.236000000     6.045000000    -1.577000000
H    -2.195000000     6.976000000    -1.794000000
H    -1.321000000     5.779000000    -1.486000000
O    -1.044000000     6.569000000     1.105000000
H    -0.597000000     6.399000000     0.275000000
H    -0.639000000     5.960000000     1.723000000
O    -3.128000000     0.073000000    -1.884000000
H    -3.511000000    -0.439000000    -1.172000000
H    -3.825000000     0.133000000    -2.538000000
O    -4.630000000     5.551000000    -0.155000000
H    -4.647000000     4.605000000    -0.294000000
H    -3.850000000     5.848000000    -0.624000000
O     5.121000000     0.726000000    -4.679000000
H     4.895000000    -0.136000000    -4.328000000
H     5.689000000     0.539000000    -5.426000000
O     4.622000000    -1.670000000     2.105000000
H     4.721000000    -0.923000000     2.696000000
H     5.281000000    -2.298000000     2.400000000
O    -2.591000000    -4.920000000     2.408000000
H    -2.337000000    -4.043000000     2.698000000
H    -3.438000000    -4.795000000     1.980000000
O    -1.281000000    -7.011000000     1.434000000
H    -0.462000000    -6.835000000     1.898000000
H    -1.908000000    -6.395000000     1.813000000
O    -3.539000000    -6.234000000    -2.802000000
H    -2.762000000    -5.859000000    -2.387000000
H    -3.212000000    -6.999000000    -3.275000000
O    -4.181000000    -2.617000000     2.981000000
H    -4.327000000    -3.009000000     3.842000000
H    -3.792000000    -1.764000000     3.169000000
O     3.882000000    -1.245000000    -3.354000000
H     2.999000000    -1.510000000    -3.615000000
H     3.993000000    -1.614000000    -2.478000000
O     1.171000000     3.222000000     4.775000000
H     0.253000000     3.179000000     5.040000000
H     1.334000000     2.386000000     4.338000000
O    -5.088000000     1.067000000     1.485000000
H    -5.899000000     1.490000000     1.767000000
H    -4.706000000     0.720000000     2.291000000
O     4.628000000    -2.096000000    -0.992000000
H     4.094000000    -2.397000000    -0.256000000
H     5.458000000    -2.561000000    -0.890000000
O     0.156000000     2.105000000    -5.168000000
H    -0.179000000     2.037000000    -4.274000000
H     0.828000000     1.425000000    -5.224000000
O     2.809000000     4.062000000     2.170000000
H     2.287000000     4.055000000     1.368000000
H     2.286000000     3.565000000     2.800000000
O     6.941000000     2.270000000     0.827000000
H     6.891000000     2.907000000     0.115000000
H     6.346000000     1.568000000     0.563000000
O     7.001000000    -0.513000000    -2.277000000
H     6.680000000     0.376000000    -2.123000000
H     6.215000000    -1.018000000    -2.485000000
O     1.790000000     0.723000000     3.378000000
H     2.474000000     0.828000000     2.717000000
H     1.429000000    -0.148000000     3.214000000
O    -1.320000000    -0.290000000     4.361000000
H    -1.057000000    -1.188000000     4.160000000
H    -0.733000000    -0.021000000     5.068000000
O     1.872000000    -1.894000000     2.301000000
H     2.805000000    -1.992000000     2.116000000
H     1.471000000    -1.751000000     1.444000000
O    -3.959000000     0.167000000     3.900000000
H    -4.626000000    -0.117000000     4.526000000
H    -3.145000000    -0.215000000     4.228000000
O     5.890000000     4.169000000     2.420000000
H     6.118000000     3.351000000     1.978000000
H     4.955000000     4.283000000     2.247000000
