161
-3050.34216
C     1.154000000     0.830000000    -0.284000000
H     2.051000000     1.401000000    -0.509000000
C     0.983000000    -0.474000000    -0.710000000
H     1.771000000    -1.005000000    -1.238000000
C    -0.160000000    -1.124000000    -0.424000000
C    -0.258000000    -2.632000000    -0.725000000
H     0.474000000    -2.938000000    -1.476000000
H    -0.139000000    -3.196000000     0.202000000
H    -1.312000000    -2.832000000    -0.928000000
C    -1.156000000    -0.451000000     0.325000000
H    -2.089000000    -0.960000000     0.551000000
C    -0.987000000     0.799000000     0.710000000
H    -1.799000000     1.276000000     1.253000000
C     0.169000000     1.478000000     0.450000000
C     0.365000000     2.881000000     0.849000000
O    -0.524000000     3.611000000     1.326000000
O     1.460000000     3.342000000     0.622000000
O    -0.382000000    -7.846000000    -1.748000000
H     0.174000000    -7.484000000    -1.057000000
H    -0.364000000    -7.185000000    -2.440000000
O     4.413000000    -5.005000000    -0.934000000
H     3.935000000    -5.816000000    -1.108000000
H     5.029000000    -5.235000000    -0.238000000
O    -4.210000000     1.113000000     0.616000000
H    -4.587000000     0.508000000     1.255000000
H    -3.825000000     1.811000000     1.145000000
O    -6.742000000     2.924000000    -0.242000000
H    -5.971000000     2.392000000    -0.044000000
H    -6.425000000     3.826000000    -0.210000000
O     6.044000000    -2.091000000    -2.758000000
H     5.530000000    -2.721000000    -3.263000000
H     6.321000000    -1.438000000    -3.400000000
O    -0.535000000    -5.594000000    -3.591000000
H    -0.473000000    -4.668000000    -3.356000000
H    -1.291000000    -5.643000000    -4.176000000
O    -2.591000000    -5.549000000     1.264000000
H    -2.265000000    -4.743000000     1.665000000
H    -3.513000000    -5.586000000     1.517000000
O     2.114000000    -6.219000000    -4.784000000
H     1.735000000    -5.710000000    -4.067000000
H     1.395000000    -6.328000000    -5.407000000
O     0.017000000    -2.184000000    -3.955000000
H     0.729000000    -1.585000000    -3.731000000
H    -0.628000000    -2.060000000    -3.258000000
O     3.782000000     3.642000000    -2.876000000
H     3.013000000     4.150000000    -3.132000000
H     4.488000000     3.981000000    -3.427000000
O     3.827000000    -0.321000000     3.273000000
H     4.752000000    -0.413000000     3.045000000
H     3.576000000     0.532000000     2.918000000
O     2.361000000     5.771000000    -0.053000000
H     1.934000000     4.916000000    -0.111000000
H     1.644000000     6.387000000     0.100000000
O     4.840000000     6.726000000     0.512000000
H     4.910000000     7.679000000     0.455000000
H     4.029000000     6.517000000     0.049000000
O     2.194000000    -0.329000000    -3.660000000
H     2.572000000     0.082000000    -2.882000000
H     2.791000000    -0.090000000    -4.370000000
O    -2.444000000    -1.193000000    -2.757000000
H    -3.294000000    -0.830000000    -2.508000000
H    -1.963000000    -0.449000000    -3.120000000
O    -6.000000000     1.251000000     3.280000000
H    -5.672000000     0.797000000     4.056000000
H    -6.395000000     0.561000000     2.748000000
O     0.700000000     3.207000000     6.728000000
H     0.708000000     3.658000000     5.883000000
H     0.716000000     3.912000000     7.375000000
O     4.055000000     3.119000000    -0.203000000
H     3.153000000     3.127000000     0.117000000
H     3.998000000     3.478000000    -1.089000000
O     1.688000000     8.530000000     2.959000000
H     2.501000000     8.040000000     3.080000000
H     1.043000000     7.867000000     2.715000000
O    -4.697000000     0.069000000    -1.893000000
H    -4.216000000     0.352000000    -1.116000000
H    -5.605000000     0.317000000    -1.715000000
O    -2.865000000    -3.805000000    -3.060000000
H    -3.498000000    -3.627000000    -3.756000000
H    -2.601000000    -2.940000000    -2.749000000
O     0.177000000    -6.195000000     1.296000000
H     0.672000000    -5.518000000     1.756000000
H    -0.687000000    -5.807000000     1.157000000
O    -4.787000000    -4.570000000     2.851000000
H    -4.317000000    -5.063000000     3.523000000
H    -4.931000000    -3.708000000     3.244000000
O     2.798000000    -2.788000000     0.465000000
H     3.082000000    -3.381000000    -0.231000000
H     3.430000000    -2.069000000     0.440000000
O     0.396000000     4.351000000     4.029000000
H     1.251000000     4.536000000     3.641000000
H     0.085000000     3.573000000     3.565000000
O    -0.712000000     5.976000000    -0.273000000
H    -1.562000000     5.830000000    -0.687000000
H    -0.624000000     5.258000000     0.353000000
O    -3.063000000     3.077000000     2.014000000
H    -3.021000000     3.331000000     2.936000000
H    -2.170000000     3.201000000     1.691000000
O     0.507000000     1.191000000     4.398000000
H    -0.342000000     1.557000000     4.647000000
H     0.750000000     0.628000000     5.134000000
O    -1.209000000    -4.871000000     4.509000000
H    -1.679000000    -4.061000000     4.706000000
H    -1.024000000    -4.819000000     3.572000000
O    -0.490000000     0.778000000    -3.025000000
H    -0.289000000     1.188000000    -2.184000000
H     0.311000000     0.310000000    -3.261000000
O     6.713000000     2.092000000    -0.773000000
H     5.831000000     2.152000000    -0.406000000
H     6.934000000     2.992000000    -1.014000000
O    -2.215000000     4.110000000     5.094000000
H    -2.465000000     5.028000000     5.192000000
H    -1.331000000     4.139000000     4.728000000
O     0.844000000     7.684000000    -2.020000000
H     0.426000000     7.683000000    -2.881000000
H     0.304000000     7.097000000    -1.491000000
O     2.402000000     5.609000000     2.719000000
H     2.682000000     5.687000000     1.807000000
H     3.200000000     5.751000000     3.228000000
O    -2.755000000     5.733000000    -1.778000000
H    -3.697000000     5.665000000    -1.937000000
H    -2.380000000     5.921000000    -2.639000000
O     4.304000000     0.783000000    -2.329000000
H     4.173000000     1.648000000    -1.940000000
H     4.865000000     0.945000000    -3.087000000
O    -0.717000000     7.245000000     2.496000000
H    -0.585000000     6.410000000     2.945000000
H    -1.667000000     7.321000000     2.406000000
O     3.234000000    -7.151000000     1.469000000
H     4.132000000    -7.306000000     1.762000000
H     2.990000000    -6.318000000     1.873000000
O     0.515000000    -3.186000000    -6.607000000
H     0.421000000    -4.126000000    -6.761000000
H     0.326000000    -3.075000000    -5.675000000
O    -1.706000000    -3.190000000     2.260000000
H    -2.329000000    -2.494000000     2.052000000
H    -0.856000000    -2.751000000     2.281000000
O    -4.364000000     4.559000000     0.178000000
H    -3.531000000     4.779000000    -0.240000000
H    -4.119000000     4.028000000     0.936000000
O     4.698000000    -0.946000000    -0.441000000
H     4.541000000    -0.202000000    -1.023000000
H     5.267000000    -1.528000000    -0.945000000
O    -3.539000000    -6.124000000    -1.475000000
H    -3.334000000    -5.354000000    -2.006000000
H    -2.718000000    -6.335000000    -1.031000000
O     2.658000000     2.394000000     2.819000000
H     1.808000000     2.258000000     3.238000000
H     2.446000000     2.763000000     1.962000000
O     5.782000000     4.382000000     1.459000000
H     5.609000000     5.290000000     1.212000000
H     5.177000000     3.869000000     0.923000000
O     0.865000000    -1.538000000     2.668000000
H     1.341000000    -1.654000000     1.846000000
H     0.710000000    -0.595000000     2.724000000
O     2.127000000    -4.773000000     2.625000000
H     2.745000000    -4.680000000     3.350000000
H     2.182000000    -3.940000000     2.156000000
O     5.205000000     2.653000000     3.688000000
H     4.338000000     2.247000000     3.667000000
H     5.193000000     3.278000000     2.963000000
