161
-3053.04167
C     1.409000000     0.277000000    -0.098000000
H     2.471000000     0.476000000    -0.210000000
C     0.716000000    -0.674000000    -0.848000000
H     1.241000000    -1.209000000    -1.635000000
C    -0.643000000    -0.802000000    -0.647000000
C    -1.213000000    -1.972000000    -1.386000000
H    -1.392000000    -1.642000000    -2.411000000
H    -0.542000000    -2.834000000    -1.396000000
H    -2.144000000    -2.342000000    -0.950000000
C    -1.350000000    -0.001000000     0.214000000
H    -2.418000000    -0.167000000     0.330000000
C    -0.651000000     0.941000000     0.984000000
H    -1.096000000     1.534000000     1.779000000
C     0.743000000     1.083000000     0.831000000
C     1.434000000     2.113000000     1.608000000
O     0.818000000     3.112000000     1.965000000
O     2.618000000     2.106000000     1.867000000
O    -5.219000000     3.271000000     1.626000000
H    -6.111000000     2.952000000     1.757000000
H    -4.849000000     2.683000000     0.967000000
O     3.938000000     5.737000000    -0.633000000
H     3.135000000     5.370000000    -0.263000000
H     4.140000000     6.485000000    -0.070000000
O     1.887000000    -4.580000000    -2.059000000
H     2.843000000    -4.619000000    -2.040000000
H     1.653000000    -4.079000000    -1.278000000
O     5.399000000     0.521000000    -3.190000000
H     5.883000000     1.032000000    -3.838000000
H     5.534000000    -0.389000000    -3.452000000
O     3.266000000    -0.370000000     2.727000000
H     4.095000000    -0.412000000     2.250000000
H     3.067000000     0.565000000     2.779000000
O     1.483000000     4.672000000     4.038000000
H     1.603000000     4.115000000     4.808000000
H     1.212000000     4.069000000     3.346000000
O    -0.262000000    -0.437000000    -5.823000000
H     0.134000000    -0.784000000    -6.622000000
H     0.249000000    -0.826000000    -5.114000000
O    -0.074000000     1.708000000    -2.551000000
H     0.623000000     1.941000000    -3.164000000
H     0.190000000     0.856000000    -2.202000000
O    -4.566000000     0.408000000     2.482000000
H    -5.017000000     0.484000000     3.323000000
H    -3.887000000    -0.249000000     2.632000000
O    -5.531000000    -3.394000000    -1.685000000
H    -5.356000000    -4.165000000    -1.146000000
H    -4.979000000    -2.708000000    -1.310000000
O     4.796000000     1.415000000     0.494000000
H     4.060000000     1.578000000     1.083000000
H     4.702000000     2.074000000    -0.194000000
O    -3.884000000     1.969000000    -0.638000000
H    -3.983000000     1.899000000    -1.588000000
H    -2.938000000     1.944000000    -0.493000000
O     4.921000000    -3.987000000    -2.423000000
H     5.314000000    -4.773000000    -2.801000000
H     5.287000000    -3.266000000    -2.936000000
O    -2.046000000     1.619000000    -5.423000000
H    -1.954000000     1.971000000    -6.308000000
H    -1.288000000     1.045000000    -5.313000000
O     1.190000000    -4.027000000     0.616000000
H     0.907000000    -3.267000000     1.124000000
H     1.428000000    -4.680000000     1.274000000
O    -3.811000000    -1.609000000    -3.701000000
H    -3.797000000    -0.672000000    -3.893000000
H    -4.553000000    -1.722000000    -3.108000000
O    -0.981000000    -3.393000000     3.466000000
H    -0.860000000    -3.218000000     4.399000000
H    -0.194000000    -3.041000000     3.051000000
O     5.910000000    -3.110000000    -0.041000000
H     5.409000000    -3.291000000    -0.837000000
H     5.914000000    -2.156000000     0.028000000
O     1.836000000     3.673000000     6.806000000
H     2.268000000     2.855000000     6.558000000
H     2.554000000     4.294000000     6.931000000
O     1.466000000     5.231000000     0.147000000
H     0.630000000     5.354000000    -0.303000000
H     1.285000000     4.565000000     0.810000000
O    -1.320000000     4.720000000     1.262000000
H    -2.127000000     4.243000000     1.452000000
H    -0.622000000     4.139000000     1.564000000
O     3.155000000     1.400000000     5.633000000
H     3.410000000     1.111000000     6.509000000
H     2.878000000     0.599000000     5.188000000
O    -2.558000000    -0.026000000     5.074000000
H    -3.198000000    -0.556000000     5.548000000
H    -2.207000000    -0.614000000     4.406000000
O     4.746000000     3.346000000    -1.357000000
H     4.521000000     4.264000000    -1.203000000
H     4.343000000     3.139000000    -2.200000000
O    -2.979000000     2.716000000     2.973000000
H    -3.917000000     2.660000000     2.790000000
H    -2.677000000     1.809000000     2.951000000
O     2.122000000     8.164000000     0.525000000
H     3.072000000     8.281000000     0.530000000
H     1.990000000     7.262000000     0.818000000
O     3.038000000     6.203000000     2.435000000
H     3.945000000     5.910000000     2.522000000
H     2.578000000     5.775000000     3.157000000
O    -2.553000000    -4.286000000    -4.296000000
H    -1.620000000    -4.072000000    -4.289000000
H    -2.994000000    -3.441000000    -4.207000000
O    -3.103000000     5.057000000     4.422000000
H    -2.909000000     5.840000000     3.907000000
H    -2.870000000     4.329000000     3.845000000
O     2.409000000     1.702000000    -4.062000000
H     2.591000000     1.797000000    -4.997000000
H     3.185000000     1.268000000    -3.709000000
O     0.365000000     6.499000000     5.769000000
H     0.526000000     5.857000000     5.077000000
H     0.922000000     7.243000000     5.540000000
O     1.706000000    -7.271000000    -3.431000000
H     0.866000000    -7.645000000    -3.164000000
H     1.729000000    -6.411000000    -3.013000000
O    -2.060000000    -4.857000000     1.108000000
H    -1.638000000    -4.313000000     1.773000000
H    -1.335000000    -5.285000000     0.654000000
O    -4.768000000    -5.297000000     0.130000000
H    -3.846000000    -5.090000000     0.282000000
H    -5.200000000    -5.093000000     0.960000000
O    -2.950000000    -1.839000000     3.142000000
H    -2.157000000    -2.342000000     2.960000000
H    -3.537000000    -2.463000000     3.569000000
O    -1.922000000     6.860000000     2.427000000
H    -1.420000000     6.128000000     2.070000000
H    -1.399000000     7.634000000     2.218000000
O    -5.537000000    -0.494000000    -0.605000000
H    -6.177000000    -0.849000000     0.012000000
H    -5.004000000     0.104000000    -0.082000000
O    -3.765000000     1.789000000    -3.399000000
H    -4.579000000     2.170000000    -3.727000000
H    -3.242000000     1.628000000    -4.184000000
O     6.126000000    -0.589000000    -0.775000000
H     5.725000000    -0.257000000     0.028000000
H     5.714000000    -0.083000000    -1.476000000
O    -1.078000000     6.278000000    -0.887000000
H    -1.143000000     5.718000000    -0.114000000
H    -1.334000000     5.712000000    -1.615000000
O     0.238000000    -4.498000000    -4.103000000
H     0.964000000    -4.196000000    -4.649000000
H     0.617000000    -4.591000000    -3.229000000
O     4.454000000     2.995000000     3.632000000
H     4.094000000     2.668000000     4.456000000
H     3.893000000     2.613000000     2.957000000
O     7.069000000     3.684000000     0.795000000
H     6.295000000     3.158000000     0.594000000
H     7.330000000     3.401000000     1.672000000
O     0.835000000    -1.788000000     2.245000000
H     0.311000000    -1.086000000     1.860000000
H     1.610000000    -1.346000000     2.591000000
O     0.293000000     0.000000000     6.232000000
H    -0.454000000     0.351000000     5.746000000
H     0.338000000     0.538000000     7.023000000
O    -1.555000000     3.138000000     6.910000000
H    -1.754000000     4.070000000     7.004000000
H    -1.595000000     2.979000000     5.967000000
O     6.047000000    -0.738000000     2.633000000
H     6.642000000    -0.445000000     1.943000000
H     6.428000000    -0.393000000     3.441000000
O     5.738000000     5.475000000     3.202000000
H     5.907000000     4.538000000     3.303000000
H     6.100000000     5.692000000     2.343000000
