161
-3038.46488
C     1.411000000     0.250000000    -0.606000000
H     2.314000000     0.309000000    -1.209000000
C     0.628000000    -0.908000000    -0.649000000
H     0.986000000    -1.757000000    -1.225000000
C    -0.638000000    -1.035000000    -0.043000000
C    -1.453000000    -2.279000000    -0.067000000
H    -1.183000000    -3.049000000     0.659000000
H    -2.541000000    -2.234000000     0.010000000
H    -1.304000000    -2.786000000    -1.022000000
C    -1.158000000     0.091000000     0.565000000
H    -2.136000000     0.026000000     1.036000000
C    -0.406000000     1.200000000     0.703000000
H    -0.956000000     2.044000000     1.111000000
C     0.901000000     1.306000000     0.072000000
C     1.634000000     2.617000000     0.145000000
O     1.048000000     3.684000000     0.343000000
O     2.845000000     2.527000000     0.171000000
O    -5.327000000     3.610000000    -0.607000000
H    -5.156000000     3.319000000     0.289000000
H    -4.806000000     3.021000000    -1.153000000
O     4.600000000     5.278000000    -2.556000000
H     3.724000000     4.922000000    -2.406000000
H     4.445000000     6.163000000    -2.886000000
O     0.493000000    -5.196000000    -1.331000000
H     1.424000000    -5.261000000    -1.540000000
H     0.466000000    -5.131000000    -0.376000000
O     3.747000000    -0.910000000    -5.729000000
H     3.768000000    -0.184000000    -5.106000000
H     4.564000000    -1.383000000    -5.572000000
O    -3.760000000     0.545000000     5.282000000
H    -4.445000000    -0.039000000     4.957000000
H    -3.601000000     0.251000000     6.179000000
O     4.243000000     0.353000000     0.913000000
H     5.059000000     0.786000000     1.165000000
H     3.646000000     1.071000000     0.703000000
O     0.694000000    -6.843000000     1.132000000
H     0.505000000    -6.358000000     1.935000000
H     1.434000000    -7.406000000     1.361000000
O     2.446000000     5.736000000     1.163000000
H     2.608000000     6.188000000     0.335000000
H     1.973000000     4.942000000     0.914000000
O    -4.180000000    -4.471000000     4.916000000
H    -3.707000000    -4.045000000     4.202000000
H    -4.631000000    -5.206000000     4.500000000
O    -4.512000000     1.297000000     1.655000000
H    -5.375000000     1.509000000     2.012000000
H    -4.686000000     0.638000000     0.983000000
O     0.048000000    -0.474000000    -3.313000000
H     0.122000000    -0.504000000    -2.359000000
H     0.108000000     0.456000000    -3.528000000
O    -2.452000000     2.122000000     3.489000000
H    -2.825000000     1.642000000     4.228000000
H    -2.906000000     1.772000000     2.722000000
O    -1.922000000    -6.445000000     2.184000000
H    -2.014000000    -6.787000000     3.074000000
H    -1.543000000    -7.170000000     1.688000000
O     5.194000000     3.330000000    -0.854000000
H     4.338000000     3.087000000    -0.501000000
H     4.996000000     3.958000000    -1.549000000
O    -3.836000000     1.670000000    -1.723000000
H    -3.674000000     0.920000000    -1.151000000
H    -3.674000000     1.338000000    -2.606000000
O     1.257000000    -2.159000000    -5.434000000
H     1.821000000    -1.496000000    -5.833000000
H     0.939000000    -1.750000000    -4.629000000
O     3.235000000    -5.825000000    -1.107000000
H     3.960000000    -5.546000000    -0.549000000
H     3.424000000    -5.433000000    -1.960000000
O    -3.841000000    -0.145000000    -3.849000000
H    -4.389000000    -0.439000000    -4.577000000
H    -3.445000000    -0.947000000    -3.509000000
O    -2.326000000    -3.889000000     3.020000000
H    -2.221000000    -4.728000000     2.572000000
H    -1.432000000    -3.607000000     3.213000000
O     5.283000000    -1.712000000    -0.639000000
H     5.763000000    -1.451000000    -1.424000000
H     4.799000000    -0.927000000    -0.381000000
O    -2.859000000    -6.151000000    -0.714000000
H    -2.563000000    -5.706000000     0.080000000
H    -2.141000000    -6.036000000    -1.336000000
O     1.392000000     3.558000000     3.332000000
H     1.679000000     2.649000000     3.426000000
H     1.612000000     3.787000000     2.429000000
O     1.879000000     4.605000000    -2.157000000
H     1.118000000     5.059000000    -2.517000000
H     1.509000000     3.953000000    -1.562000000
O     6.992000000     1.708000000     0.488000000
H     6.518000000     2.399000000     0.026000000
H     7.691000000     2.167000000     0.953000000
O    -1.130000000     4.539000000     1.676000000
H    -1.473000000     3.760000000     2.113000000
H    -0.331000000     4.238000000     1.242000000
O     3.215000000     0.928000000     3.789000000
H     2.547000000     1.065000000     4.460000000
H     3.455000000     0.005000000     3.875000000
O    -1.236000000    -0.837000000     4.169000000
H    -1.813000000    -0.848000000     4.933000000
H    -1.728000000    -0.358000000     3.503000000
O     0.837000000    -5.533000000     4.001000000
H     0.137000000    -5.415000000     4.643000000
H     0.861000000    -4.707000000     3.518000000
O     0.875000000     2.282000000    -3.564000000
H     0.640000000     3.177000000    -3.321000000
H     1.119000000     2.340000000    -4.488000000
O    -3.158000000     4.827000000     4.240000000
H    -4.079000000     4.566000000     4.241000000
H    -2.677000000     4.004000000     4.329000000
O     4.296000000     5.983000000     3.557000000
H     5.146000000     6.325000000     3.281000000
H     3.849000000     5.763000000     2.739000000
O    -3.567000000    -3.127000000    -4.170000000
H    -2.812000000    -3.523000000    -4.606000000
H    -4.169000000    -3.857000000    -4.025000000
O     1.156000000     6.818000000     3.594000000
H     0.386000000     7.332000000     3.349000000
H     1.395000000     6.350000000     2.794000000
O    -5.011000000    -3.257000000     2.481000000
H    -4.227000000    -3.762000000     2.263000000
H    -5.734000000    -3.769000000     2.118000000
O    -5.746000000    -5.684000000    -1.559000000
H    -4.817000000    -5.609000000    -1.342000000
H    -5.887000000    -5.029000000    -2.242000000
O    -4.879000000    -0.799000000    -0.290000000
H    -4.760000000    -1.626000000     0.178000000
H    -5.818000000    -0.758000000    -0.469000000
O     0.500000000    -3.028000000     2.627000000
H     0.217000000    -2.311000000     3.194000000
H     1.191000000    -2.646000000     2.085000000
O    -2.438000000     6.680000000     0.138000000
H    -1.769000000     6.326000000     0.725000000
H    -1.979000000     6.825000000    -0.689000000
O    -5.803000000    -2.787000000    -2.237000000
H    -6.275000000    -1.955000000    -2.271000000
H    -4.923000000    -2.576000000    -2.549000000
O     5.523000000     0.602000000    -1.978000000
H     5.249000000     1.126000000    -1.225000000
H     5.465000000     1.203000000    -2.722000000
O    -1.012000000     4.217000000    -1.871000000
H    -1.126000000     4.649000000    -1.024000000
H    -1.413000000     3.355000000    -1.755000000
O    -1.091000000    -5.367000000    -3.833000000
H    -0.998000000    -4.896000000    -4.661000000
H    -0.340000000    -5.086000000    -3.311000000
O     4.534000000     3.381000000     2.094000000
H     4.230000000     2.794000000     2.786000000
H     3.804000000     3.423000000     1.477000000
O     7.423000000     5.269000000     0.526000000
H     7.926000000     5.454000000    -0.267000000
H     6.653000000     4.793000000     0.215000000
O     2.418000000    -1.589000000     1.754000000
H     1.864000000    -0.958000000     1.294000000
H     3.305000000    -1.243000000     1.660000000
O     0.584000000     1.281000000     4.906000000
H    -0.038000000     2.001000000     4.804000000
H     0.060000000     0.491000000     4.773000000
O    -0.533000000     3.998000000     5.393000000
H    -0.606000000     4.900000000     5.704000000
H     0.050000000     4.052000000     4.636000000
O     6.679000000     4.569000000     3.134000000
H     5.908000000     4.310000000     2.628000000
H     7.262000000     4.974000000     2.491000000
