161
-3029.05112
C    -0.306000000    -0.726000000    -1.242000000
H    -0.631000000    -1.359000000    -2.064000000
C    -0.155000000    -1.234000000     0.032000000
H    -0.250000000    -2.316000000     0.080000000
C     0.206000000    -0.456000000     1.123000000
C     0.326000000    -1.155000000     2.459000000
H     0.923000000    -0.595000000     3.183000000
H    -0.625000000    -1.133000000     2.994000000
H     0.753000000    -2.159000000     2.445000000
C     0.526000000     0.867000000     0.906000000
H     0.947000000     1.420000000     1.741000000
C     0.215000000     1.381000000    -0.370000000
H     0.423000000     2.434000000    -0.536000000
C    -0.257000000     0.648000000    -1.430000000
C    -0.624000000     1.269000000    -2.740000000
O    -0.476000000     2.447000000    -2.887000000
O    -0.995000000     0.664000000    -3.690000000
O    -5.684000000    -0.665000000    -1.430000000
H    -4.778000000    -0.475000000    -1.183000000
H    -6.089000000     0.196000000    -1.532000000
O    -2.360000000    -3.859000000     2.334000000
H    -2.212000000    -4.681000000     1.866000000
H    -3.204000000    -3.980000000     2.770000000
O     1.369000000    -0.734000000     7.356000000
H     2.148000000    -1.244000000     7.137000000
H     1.474000000     0.085000000     6.872000000
O     0.794000000    -5.007000000     1.341000000
H     0.861000000    -4.707000000     2.248000000
H     1.326000000    -4.387000000     0.843000000
O     2.966000000    -0.902000000    -0.972000000
H     2.976000000    -0.643000000    -1.894000000
H     2.144000000    -0.547000000    -0.633000000
O     0.760000000    -3.909000000    -5.546000000
H     0.412000000    -3.024000000    -5.659000000
H     1.266000000    -4.071000000    -6.342000000
O    -0.939000000     5.666000000     2.813000000
H    -1.811000000     5.845000000     2.459000000
H    -0.537000000     5.078000000     2.174000000
O    -4.652000000    -0.131000000    -6.704000000
H    -4.132000000    -0.022000000    -5.909000000
H    -5.124000000    -0.953000000    -6.571000000
O    -2.105000000     2.379000000     1.396000000
H    -2.039000000     2.109000000     2.312000000
H    -1.200000000     2.543000000     1.129000000
O    -2.979000000    -2.628000000    -7.060000000
H    -3.709000000    -2.892000000    -7.620000000
H    -3.370000000    -2.032000000    -6.422000000
O     4.830000000    -0.539000000     2.367000000
H     4.684000000    -0.459000000     3.309000000
H     4.740000000     0.354000000     2.033000000
O     4.857000000     2.180000000     3.398000000
H     4.514000000     1.654000000     4.120000000
H     5.503000000     2.756000000     3.807000000
O    -1.105000000     2.361000000    -5.739000000
H    -1.518000000     1.649000000    -6.227000000
H    -0.933000000     1.990000000    -4.874000000
O    -3.169000000    -3.024000000    -0.334000000
H    -2.348000000    -2.572000000    -0.528000000
H    -3.171000000    -3.119000000     0.618000000
O     3.225000000    -6.236000000    -0.344000000
H     2.916000000    -6.427000000    -1.229000000
H     2.829000000    -5.391000000    -0.129000000
O    -4.928000000    -1.169000000     2.614000000
H    -4.096000000    -1.139000000     2.142000000
H    -4.777000000    -0.644000000     3.400000000
O     2.108000000     2.750000000    -3.284000000
H     1.166000000     2.862000000    -3.156000000
H     2.389000000     3.553000000    -3.721000000
O     4.662000000     0.123000000     5.466000000
H     5.585000000     0.147000000     5.720000000
H     4.372000000    -0.759000000     5.698000000
O     0.256000000    -3.744000000    -2.457000000
H    -0.652000000    -3.479000000    -2.602000000
H     0.639000000    -3.773000000    -3.334000000
O     0.683000000    -0.677000000    -5.547000000
H     0.875000000    -0.156000000    -6.327000000
H    -0.114000000    -0.285000000    -5.188000000
O    -2.465000000    -3.905000000    -3.328000000
H    -3.329000000    -4.007000000    -3.727000000
H    -2.014000000    -4.727000000    -3.521000000
O     3.870000000    -1.484000000    -5.114000000
H     4.477000000    -0.796000000    -4.843000000
H     3.123000000    -1.390000000    -4.523000000
O    -4.293000000     3.591000000    -5.244000000
H    -4.259000000     3.096000000    -6.063000000
H    -3.525000000     4.161000000    -5.277000000
O    -1.090000000     4.360000000    -1.206000000
H    -1.089000000     3.723000000    -1.920000000
H    -2.017000000     4.536000000    -1.043000000
O     1.455000000     3.469000000    -6.602000000
H     0.589000000     3.064000000    -6.563000000
H     2.005000000     2.817000000    -7.036000000
O     3.693000000     4.052000000    -1.313000000
H     4.487000000     3.640000000    -0.974000000
H     3.393000000     3.461000000    -2.004000000
O     0.650000000     4.851000000     0.750000000
H     0.034000000     4.838000000     0.017000000
H     1.183000000     5.633000000     0.601000000
O    -4.235000000    -0.019000000     5.174000000
H    -5.133000000     0.309000000     5.135000000
H    -4.141000000    -0.354000000     6.066000000
O     2.340000000     0.018000000    -3.287000000
H     2.373000000     0.973000000    -3.223000000
H     1.604000000    -0.157000000    -3.873000000
O    -1.790000000     5.277000000    -4.907000000
H    -1.155000000     5.713000000    -5.474000000
H    -1.618000000     4.343000000    -5.028000000
O     1.685000000     1.591000000     6.014000000
H     1.806000000     2.169000000     5.260000000
H     0.802000000     1.786000000     6.327000000
O     2.630000000     6.751000000     0.102000000
H     2.458000000     7.462000000    -0.515000000
H     2.935000000     6.027000000    -0.446000000
O     1.200000000     5.669000000    -3.445000000
H     0.340000000     5.531000000    -3.046000000
H     1.333000000     6.616000000    -3.406000000
O     4.690000000    -5.122000000     3.333000000
H     5.163000000    -4.677000000     4.037000000
H     4.408000000    -4.417000000     2.751000000
O    -3.314000000     4.606000000     1.690000000
H    -2.777000000     3.815000000     1.740000000
H    -3.641000000     4.616000000     0.790000000
O    -4.068000000     4.403000000    -0.966000000
H    -4.590000000     5.018000000    -1.480000000
H    -3.897000000     3.675000000    -1.564000000
O     4.725000000    -2.945000000     1.050000000
H     3.964000000    -3.250000000     0.557000000
H     4.477000000    -2.074000000     1.359000000
O     1.219000000    -4.676000000     4.070000000
H     1.803000000    -4.349000000     4.754000000
H     0.762000000    -5.412000000     4.477000000
O    -1.654000000    -6.352000000     0.996000000
H    -0.743000000    -6.088000000     0.865000000
H    -1.917000000    -6.726000000     0.155000000
O    -3.196000000    -0.535000000    -4.538000000
H    -3.351000000    -1.084000000    -3.769000000
H    -2.451000000     0.015000000    -4.293000000
O    -1.631000000    -3.531000000     5.570000000
H    -1.689000000    -2.705000000     6.050000000
H    -1.574000000    -3.270000000     4.651000000
O     2.914000000     4.010000000     5.314000000
H     2.600000000     4.451000000     4.525000000
H     2.953000000     4.701000000     5.976000000
O    -3.190000000     2.748000000    -2.768000000
H    -2.297000000     2.605000000    -3.082000000
H    -3.712000000     2.842000000    -3.565000000
O     3.322000000     4.219000000     2.326000000
H     2.827000000     3.889000000     1.576000000
H     4.024000000     3.581000000     2.449000000
O    -1.416000000    -1.184000000     6.806000000
H    -0.472000000    -1.306000000     6.898000000
H    -1.695000000    -0.823000000     7.647000000
O    -2.409000000     1.818000000     4.153000000
H    -3.163000000     1.510000000     4.655000000
H    -1.650000000     1.476000000     4.626000000
O     2.355000000    -3.690000000    -0.316000000
H     1.538000000    -3.856000000    -0.785000000
H     2.630000000    -2.822000000    -0.613000000
O    -3.496000000     0.518000000    -0.738000000
H    -2.565000000     0.378000000    -0.564000000
H    -3.513000000     1.169000000    -1.440000000
