161
-3035.96066
C    -0.244000000    -0.427000000    -1.357000000
H    -0.433000000    -0.749000000    -2.378000000
C    -0.398000000    -1.171000000    -0.257000000
H    -0.861000000    -2.153000000    -0.317000000
C    -0.089000000    -0.728000000     0.980000000
C    -0.489000000    -1.568000000     2.143000000
H    -0.303000000    -1.025000000     3.072000000
H    -1.573000000    -1.651000000     2.035000000
H     0.049000000    -2.519000000     2.140000000
C     0.493000000     0.525000000     1.160000000
H     0.796000000     0.930000000     2.122000000
C     0.667000000     1.337000000     0.028000000
H     1.014000000     2.334000000     0.286000000
C     0.296000000     0.864000000    -1.255000000
C     0.400000000     1.718000000    -2.503000000
O     1.013000000     2.764000000    -2.444000000
O    -0.335000000     1.525000000    -3.456000000
O    -4.696000000     1.551000000    -4.547000000
H    -5.448000000     0.998000000    -4.336000000
H    -4.574000000     2.096000000    -3.770000000
O     1.714000000    -5.104000000    -0.059000000
H     2.012000000    -4.459000000     0.583000000
H     1.672000000    -4.619000000    -0.883000000
O    -1.969000000    -4.257000000     0.970000000
H    -2.481000000    -4.342000000     0.165000000
H    -2.467000000    -3.641000000     1.507000000
O     4.069000000     2.218000000     4.310000000
H     4.503000000     2.902000000     4.819000000
H     3.150000000     2.269000000     4.575000000
O    -0.007000000    -4.045000000    -3.754000000
H     0.905000000    -4.041000000    -3.462000000
H    -0.500000000    -4.356000000    -2.995000000
O    -5.618000000     1.074000000     2.159000000
H    -5.282000000     0.784000000     3.007000000
H    -5.186000000     0.505000000     1.522000000
O     2.895000000    -0.729000000    -0.149000000
H     3.670000000    -0.552000000     0.384000000
H     2.297000000    -0.008000000     0.051000000
O    -0.439000000    -6.446000000     0.372000000
H     0.397000000    -5.982000000     0.333000000
H    -1.050000000    -5.810000000     0.744000000
O    -3.824000000    -2.961000000     2.394000000
H    -3.309000000    -3.047000000     3.196000000
H    -4.539000000    -3.587000000     2.500000000
O    -3.048000000     1.892000000     0.351000000
H    -2.738000000     0.996000000     0.484000000
H    -2.429000000     2.435000000     0.839000000
O     5.580000000    -1.019000000     2.308000000
H     5.478000000    -1.188000000     3.245000000
H     4.982000000    -0.293000000     2.130000000
O     4.029000000    -1.804000000     4.512000000
H     3.533000000    -1.557000000     5.293000000
H     4.601000000    -2.512000000     4.806000000
O    -2.503000000     4.078000000    -4.379000000
H    -2.554000000     3.131000000    -4.503000000
H    -2.535000000     4.197000000    -3.429000000
O    -4.302000000    -0.802000000     0.480000000
H    -4.353000000    -1.545000000     1.081000000
H    -4.441000000    -1.186000000    -0.386000000
O    -4.010000000    -3.188000000     6.204000000
H    -3.729000000    -2.964000000     7.091000000
H    -3.289000000    -2.899000000     5.644000000
O     1.657000000     3.135000000     5.351000000
H     1.399000000     3.835000000     5.950000000
H     1.090000000     3.252000000     4.588000000
O     2.120000000     3.340000000    -4.929000000
H     1.741000000     2.901000000    -4.168000000
H     1.377000000     3.493000000    -5.513000000
O     1.851000000    -1.600000000    -4.107000000
H     1.610000000    -0.769000000    -4.516000000
H     1.972000000    -2.203000000    -4.841000000
O     0.484000000     0.568000000    -5.947000000
H     0.716000000     1.227000000    -6.601000000
H     0.303000000     1.072000000    -5.153000000
O    -0.639000000    -2.057000000    -6.529000000
H    -0.194000000    -1.296000000    -6.156000000
H     0.053000000    -2.709000000    -6.639000000
O     4.302000000     0.905000000    -3.202000000
H     3.738000000     1.186000000    -2.482000000
H     4.029000000     1.443000000    -3.945000000
O     4.696000000     6.042000000    -1.041000000
H     4.554000000     5.331000000    -1.667000000
H     3.970000000     6.647000000    -1.198000000
O    -0.020000000     5.217000000    -2.350000000
H     0.668000000     5.745000000    -2.753000000
H     0.311000000     4.320000000    -2.391000000
O    -1.383000000     5.564000000    -6.488000000
H    -0.435000000     5.618000000    -6.364000000
H    -1.691000000     5.031000000    -5.755000000
O     4.253000000     4.196000000    -2.994000000
H     5.112000000     4.242000000    -3.414000000
H     3.633000000     4.156000000    -3.722000000
O    -0.559000000     7.736000000    -0.442000000
H    -0.377000000     6.876000000    -0.821000000
H    -1.115000000     8.170000000    -1.089000000
O     4.136000000     2.061000000    -5.985000000
H     4.751000000     2.646000000    -6.427000000
H     3.378000000     2.612000000    -5.791000000
O    -4.143000000     0.330000000     4.287000000
H    -4.150000000     0.194000000     5.235000000
H    -3.372000000     0.875000000     4.129000000
O     3.376000000     2.595000000    -0.966000000
H     4.059000000     3.025000000    -1.479000000
H     2.559000000     2.840000000    -1.400000000
O     0.771000000     3.131000000    -7.414000000
H     1.059000000     3.723000000    -8.110000000
H     0.190000000     2.510000000    -7.854000000
O     0.247000000     3.990000000     3.156000000
H     0.999000000     3.699000000     2.641000000
H    -0.417000000     4.218000000     2.504000000
O    -2.128000000     4.478000000     1.500000000
H    -3.061000000     4.502000000     1.711000000
H    -2.099000000     4.465000000     0.543000000
O     0.867000000    -2.173000000     7.117000000
H     0.295000000    -1.492000000     6.764000000
H     0.292000000    -2.927000000     7.245000000
O    -2.396000000     5.060000000    -0.963000000
H    -3.046000000     5.305000000    -1.621000000
H    -1.556000000     5.296000000    -1.358000000
O     3.249000000    -2.902000000     1.460000000
H     3.102000000    -2.431000000     2.280000000
H     3.126000000    -2.240000000     0.779000000
O    -3.229000000    -4.670000000    -1.396000000
H    -3.390000000    -5.450000000    -1.928000000
H    -3.191000000    -3.953000000    -2.029000000
O    -2.488000000    -0.009000000    -3.975000000
H    -3.260000000     0.543000000    -4.101000000
H    -1.748000000     0.595000000    -4.045000000
O     2.757000000     4.349000000     1.907000000
H     3.234000000     4.244000000     1.084000000
H     3.396000000     4.735000000     2.506000000
O    -4.382000000     2.400000000    -1.836000000
H    -3.647000000     2.174000000    -1.267000000
H    -4.673000000     3.256000000    -1.523000000
O    -1.966000000    -2.734000000     4.663000000
H    -1.380000000    -3.296000000     5.170000000
H    -1.453000000    -2.484000000     3.895000000
O     4.103000000     1.157000000     1.766000000
H     3.846000000     1.861000000     1.171000000
H     3.886000000     1.488000000     2.638000000
O     0.148000000     0.576000000     6.060000000
H    -0.421000000     0.748000000     5.310000000
H    -0.392000000     0.786000000     6.822000000
O     3.145000000     0.174000000     6.471000000
H     3.458000000     0.993000000     6.087000000
H     2.232000000     0.348000000     6.697000000
O    -1.960000000     2.105000000     3.742000000
H    -1.147000000     2.607000000     3.693000000
H    -2.574000000     2.685000000     4.192000000
O     1.804000000    -2.758000000    -1.819000000
H     1.827000000    -2.349000000    -2.684000000
H     1.378000000    -2.108000000    -1.259000000
O    -2.745000000    -2.638000000    -4.159000000
H    -2.556000000    -1.710000000    -4.019000000
H    -2.020000000    -2.951000000    -4.701000000
O    -3.326000000     0.933000000    -6.732000000
H    -3.998000000     0.980000000    -6.052000000
H    -2.572000000     0.536000000    -6.296000000
O    -4.952000000    -1.969000000    -1.928000000
H    -5.394000000    -1.163000000    -2.194000000
H    -4.293000000    -2.116000000    -2.607000000
