161
-3050.97449
C     0.438000000     1.047000000    -0.925000000
H     0.626000000     1.638000000    -1.818000000
C     1.264000000    -0.004000000    -0.574000000
H     2.173000000    -0.345000000    -1.064000000
C     0.756000000    -0.853000000     0.404000000
C     1.548000000    -2.115000000     0.754000000
H     2.407000000    -1.754000000     1.323000000
H     0.981000000    -2.829000000     1.356000000
H     1.929000000    -2.598000000    -0.148000000
C    -0.470000000    -0.671000000     1.006000000
H    -0.806000000    -1.389000000     1.750000000
C    -1.260000000     0.384000000     0.584000000
H    -2.222000000     0.397000000     1.089000000
C    -0.852000000     1.256000000    -0.419000000
C    -1.869000000     2.282000000    -0.972000000
O    -3.075000000     2.290000000    -0.711000000
O    -1.560000000     3.264000000    -1.633000000
O     0.018000000     4.841000000    -5.247000000
H     0.748000000     4.414000000    -4.799000000
H    -0.748000000     4.322000000    -5.005000000
O    -3.480000000     2.031000000     3.395000000
H    -3.433000000     2.786000000     2.809000000
H    -3.030000000     2.317000000     4.190000000
O     2.875000000    -5.650000000    -0.546000000
H     3.491000000    -5.064000000    -0.107000000
H     2.645000000    -6.298000000     0.119000000
O     1.000000000     4.437000000    -1.370000000
H     0.093000000     4.158000000    -1.494000000
H     1.428000000     4.236000000    -2.202000000
O     4.373000000     0.059000000    -5.901000000
H     4.912000000    -0.696000000    -6.136000000
H     3.899000000    -0.220000000    -5.117000000
O    -1.384000000    -2.657000000     3.887000000
H    -1.544000000    -3.363000000     3.260000000
H    -2.204000000    -2.163000000     3.905000000
O    -1.998000000     0.628000000    -4.718000000
H    -2.310000000     0.748000000    -5.615000000
H    -1.566000000     1.455000000    -4.502000000
O    -0.620000000    -6.844000000     2.236000000
H     0.317000000    -6.934000000     2.060000000
H    -0.955000000    -7.740000000     2.213000000
O    -3.760000000    -0.955000000     3.716000000
H    -3.671000000    -0.056000000     3.399000000
H    -4.647000000    -0.996000000     4.073000000
O    -0.324000000     7.249000000     0.990000000
H    -0.502000000     6.526000000     0.387000000
H    -0.554000000     8.035000000     0.495000000
O     4.327000000    -2.951000000    -1.646000000
H     4.250000000    -3.365000000    -2.506000000
H     4.818000000    -2.146000000    -1.811000000
O     4.814000000    -3.776000000     1.001000000
H     4.657000000    -3.430000000     0.122000000
H     5.591000000    -3.308000000     1.307000000
O     2.036000000    -7.146000000     1.626000000
H     2.695000000    -7.630000000     2.124000000
H     1.511000000    -7.823000000     1.200000000
O     2.619000000     4.008000000     0.687000000
H     2.043000000     4.270000000    -0.031000000
H     2.073000000     3.450000000     1.240000000
O    -4.672000000     0.446000000     0.245000000
H    -4.109000000     1.179000000    -0.003000000
H    -4.280000000    -0.313000000    -0.187000000
O    -4.739000000     2.949000000    -2.868000000
H    -5.470000000     2.493000000    -2.451000000
H    -4.046000000     2.945000000    -2.207000000
O    -0.766000000     7.082000000    -3.578000000
H    -0.903000000     6.429000000    -4.264000000
H    -0.106000000     7.674000000    -3.940000000
O     2.334000000     0.788000000     2.732000000
H     2.360000000     0.533000000     3.655000000
H     1.401000000     0.823000000     2.520000000
O     3.770000000    -4.271000000    -3.897000000
H     3.082000000    -4.772000000    -3.461000000
H     3.808000000    -4.635000000    -4.782000000
O     1.231000000    -5.152000000    -2.829000000
H     1.509000000    -5.422000000    -1.954000000
H     1.383000000    -5.921000000    -3.377000000
O    -4.696000000    -0.861000000    -3.286000000
H    -3.814000000    -0.524000000    -3.442000000
H    -4.618000000    -1.369000000    -2.478000000
O    -7.027000000     5.120000000    -1.081000000
H    -7.735000000     5.680000000    -0.765000000
H    -6.286000000     5.326000000    -0.511000000
O     6.705000000    -2.422000000     2.455000000
H     7.095000000    -1.765000000     1.878000000
H     7.396000000    -2.627000000     3.085000000
O     6.062000000    -0.762000000    -1.266000000
H     5.522000000    -0.579000000    -0.497000000
H     6.611000000     0.016000000    -1.364000000
O    -0.505000000    -1.605000000    -5.626000000
H    -0.883000000    -0.782000000    -5.316000000
H     0.223000000    -1.775000000    -5.027000000
O    -3.039000000     6.123000000     1.999000000
H    -3.510000000     5.327000000     1.754000000
H    -2.394000000     6.243000000     1.302000000
O    -3.885000000     3.678000000     1.323000000
H    -3.516000000     3.198000000     0.581000000
H    -4.800000000     3.399000000     1.358000000
O    -0.301000000    -1.152000000     6.172000000
H     0.511000000    -0.950000000     5.707000000
H    -0.878000000    -1.514000000     5.500000000
O     2.366000000    -0.595000000     5.588000000
H     2.591000000    -0.594000000     6.518000000
H     2.839000000    -1.345000000     5.228000000
O    -6.013000000    -2.743000000     1.815000000
H    -5.117000000    -2.429000000     1.691000000
H    -6.058000000    -3.546000000     1.297000000
O    -2.071000000    -4.702000000     2.125000000
H    -1.595000000    -5.472000000     2.438000000
H    -2.994000000    -4.936000000     2.218000000
O    -2.032000000    -5.933000000    -0.297000000
H    -1.789000000    -5.285000000     0.365000000
H    -1.944000000    -6.775000000     0.150000000
O    -6.905000000     0.461000000     1.802000000
H    -6.726000000     1.383000000     1.614000000
H    -6.212000000    -0.015000000     1.346000000
O     3.740000000    -0.772000000    -3.437000000
H     3.220000000    -1.061000000    -2.688000000
H     4.471000000    -0.290000000    -3.050000000
O    -2.059000000     3.295000000    -4.240000000
H    -1.816000000     3.457000000    -3.328000000
H    -2.967000000     2.997000000    -4.197000000
O     2.285000000     4.056000000    -3.708000000
H     2.840000000     3.277000000    -3.752000000
H     2.894000000     4.775000000    -3.540000000
O     0.493000000     2.457000000     2.048000000
H    -0.334000000     2.169000000     1.662000000
H     0.234000000     2.983000000     2.805000000
O     2.862000000    -4.497000000     2.583000000
H     2.928000000    -5.448000000     2.492000000
H     3.383000000    -4.151000000     1.859000000
O     4.083000000     2.500000000    -1.380000000
H     3.743000000     2.993000000    -0.633000000
H     4.536000000     3.154000000    -1.912000000
O    -0.827000000    -2.709000000    -1.964000000
H    -0.240000000    -2.919000000    -1.238000000
H    -0.275000000    -2.236000000    -2.588000000
O    -3.666000000    -2.116000000    -0.994000000
H    -3.659000000    -3.052000000    -0.795000000
H    -2.761000000    -1.916000000    -1.233000000
O     0.584000000    -4.433000000     4.665000000
H     1.102000000    -4.469000000     3.861000000
H    -0.086000000    -3.771000000     4.490000000
O    -7.196000000     1.241000000    -2.252000000
H    -7.690000000     1.165000000    -1.436000000
H    -7.476000000     0.488000000    -2.773000000
O    -1.783000000     5.907000000    -1.192000000
H    -1.858000000     4.953000000    -1.219000000
H    -1.690000000     6.166000000    -2.109000000
O     1.379000000    -2.569000000    -3.560000000
H     2.334000000    -2.503000000    -3.591000000
H     1.209000000    -3.493000000    -3.379000000
O    -6.799000000     3.256000000     1.394000000
H    -7.336000000     3.666000000     2.072000000
H    -7.232000000     3.488000000     0.572000000
O     4.248000000    -1.986000000     3.988000000
H     3.875000000    -2.673000000     3.436000000
H     5.119000000    -1.831000000     3.622000000
O     4.524000000     0.333000000     0.882000000
H     4.271000000     0.878000000     0.137000000
H     3.875000000     0.532000000     1.556000000
