161
-3068.86995
C    -0.805000000     1.127000000     0.562000000
H    -1.408000000     1.934000000     0.971000000
C    -1.232000000     0.293000000    -0.443000000
H    -2.187000000     0.381000000    -0.954000000
C    -0.439000000    -0.762000000    -0.855000000
C    -0.773000000    -1.750000000    -2.019000000
H    -0.358000000    -2.747000000    -1.854000000
H    -1.862000000    -1.820000000    -2.061000000
H    -0.461000000    -1.323000000    -2.974000000
C     0.759000000    -0.999000000    -0.199000000
H     1.403000000    -1.843000000    -0.430000000
C     1.227000000    -0.052000000     0.772000000
H     2.202000000    -0.185000000     1.234000000
C     0.454000000     0.978000000     1.140000000
C     1.018000000     1.980000000     2.132000000
O     2.012000000     1.745000000     2.785000000
O     0.458000000     3.044000000     2.200000000
O     5.165000000    -4.696000000    -1.555000000
H     4.795000000    -3.879000000    -1.888000000
H     4.984000000    -4.676000000    -0.616000000
O     1.418000000    -1.046000000     4.523000000
H     1.241000000    -1.394000000     5.397000000
H     2.159000000    -0.453000000     4.647000000
O    -5.120000000    -2.167000000    -3.607000000
H    -4.978000000    -2.097000000    -2.663000000
H    -5.969000000    -2.603000000    -3.690000000
O     3.654000000    -2.322000000    -1.822000000
H     3.186000000    -2.592000000    -2.612000000
H     4.068000000    -1.492000000    -2.060000000
O    -2.289000000    -0.533000000     4.334000000
H    -1.806000000    -0.389000000     5.147000000
H    -1.610000000    -0.685000000     3.676000000
O    -1.713000000    -1.418000000    -6.097000000
H    -1.737000000    -0.623000000    -5.565000000
H    -1.852000000    -1.111000000    -6.993000000
O     4.001000000     3.953000000     1.400000000
H     3.223000000     3.459000000     1.658000000
H     4.366000000     4.274000000     2.224000000
O    -5.903000000     1.870000000    -1.299000000
H    -6.584000000     1.198000000    -1.272000000
H    -5.619000000     1.961000000    -0.389000000
O    -3.355000000     4.322000000    -0.081000000
H    -3.823000000     5.149000000     0.029000000
H    -2.463000000     4.512000000     0.209000000
O     3.348000000    -3.167000000     2.906000000
H     2.739000000    -2.965000000     3.617000000
H     2.807000000    -3.595000000     2.242000000
O     0.045000000     3.086000000    -2.091000000
H    -0.517000000     3.776000000    -2.445000000
H    -0.412000000     2.272000000    -2.303000000
O     6.224000000     3.107000000     0.143000000
H     5.372000000     3.370000000     0.491000000
H     6.606000000     3.917000000    -0.195000000
O    -2.294000000     0.674000000    -4.083000000
H    -3.189000000     0.440000000    -4.328000000
H    -2.394000000     1.423000000    -3.495000000
O     3.940000000    -0.078000000     5.852000000
H     4.706000000    -0.475000000     6.266000000
H     3.319000000     0.051000000     6.569000000
O    -1.332000000     7.182000000     2.397000000
H    -1.750000000     6.453000000     2.855000000
H    -0.525000000     7.341000000     2.887000000
O     0.036000000    -3.320000000    -5.081000000
H    -0.552000000    -2.586000000    -4.900000000
H    -0.068000000    -3.484000000    -6.018000000
O     0.159000000    -5.408000000    -0.709000000
H    -0.282000000    -5.191000000    -1.531000000
H     1.027000000    -5.711000000    -0.976000000
O     4.673000000    -1.598000000     0.780000000
H     4.281000000    -1.947000000    -0.020000000
H     4.200000000    -2.035000000     1.489000000
O    -4.672000000     2.320000000     1.236000000
H    -4.308000000     2.192000000     2.112000000
H    -4.166000000     3.044000000     0.869000000
O    -0.475000000     4.534000000     0.290000000
H    -0.492000000     3.876000000    -0.405000000
H    -0.137000000     4.068000000     1.054000000
O     1.814000000     6.958000000    -0.310000000
H     1.515000000     7.775000000     0.091000000
H     1.299000000     6.277000000     0.123000000
O     6.547000000     0.403000000     1.093000000
H     6.353000000     1.306000000     0.844000000
H     5.700000000    -0.042000000     1.060000000
O     1.045000000    -0.659000000    -6.154000000
H     1.778000000    -0.973000000    -6.685000000
H     0.291000000    -1.157000000    -6.470000000
O     1.620000000     4.659000000     4.169000000
H     2.537000000     4.904000000     4.045000000
H     1.468000000     3.969000000     3.523000000
O    -1.369000000     4.450000000     3.813000000
H    -0.914000000     4.626000000     4.637000000
H    -0.706000000     4.040000000     3.257000000
O     1.790000000    -4.802000000     1.474000000
H     1.155000000    -4.824000000     0.757000000
H     2.412000000    -5.498000000     1.263000000
O     4.328000000     1.918000000     4.018000000
H     3.545000000     1.872000000     3.469000000
H     4.165000000     1.287000000     4.719000000
O    -1.229000000    -5.066000000    -3.156000000
H    -0.897000000    -5.963000000    -3.164000000
H    -0.714000000    -4.613000000    -3.824000000
O    -2.926000000    -2.896000000     2.304000000
H    -1.990000000    -2.695000000     2.265000000
H    -3.351000000    -2.041000000     2.366000000
O    -4.028000000    -0.441000000     1.234000000
H    -4.091000000     0.513000000     1.284000000
H    -3.266000000    -0.601000000     0.678000000
O    -3.114000000     2.914000000    -2.409000000
H    -4.003000000     2.560000000    -2.443000000
H    -3.060000000     3.344000000    -1.555000000
O     5.823000000    -2.627000000     3.981000000
H     6.337000000    -3.429000000     4.076000000
H     4.929000000    -2.932000000     3.823000000
O    -0.034000000     1.517000000     4.978000000
H     0.318000000     0.772000000     5.465000000
H     0.646000000     1.728000000     4.338000000
O    -2.331000000     4.644000000    -4.513000000
H    -1.512000000     4.955000000    -4.126000000
H    -2.713000000     4.078000000    -3.843000000
O    -0.415000000    -1.712000000     2.573000000
H     0.213000000    -1.312000000     3.175000000
H    -0.045000000    -1.557000000     1.704000000
O    -0.264000000     1.786000000    -5.866000000
H    -0.991000000     1.615000000    -5.267000000
H     0.234000000     0.969000000    -5.878000000
O     2.553000000    -2.979000000    -4.390000000
H     1.649000000    -3.149000000    -4.655000000
H     3.058000000    -3.055000000    -5.200000000
O     4.303000000     0.149000000    -2.882000000
H     5.141000000     0.605000000    -2.800000000
H     3.727000000     0.781000000    -3.311000000
O    -3.443000000    -4.691000000    -1.218000000
H    -3.083000000    -4.375000000    -0.390000000
H    -2.731000000    -4.578000000    -1.848000000
O    -3.499000000    -4.208000000    -4.829000000
H    -2.875000000    -4.219000000    -4.103000000
H    -3.971000000    -3.382000000    -4.726000000
O     0.505000000    -4.769000000     3.989000000
H     0.848000000    -4.834000000     3.098000000
H     0.168000000    -3.875000000     4.051000000
O     1.203000000     7.532000000     3.885000000
H     2.121000000     7.736000000     3.706000000
H     1.228000000     6.679000000     4.320000000
O     2.708000000    -6.271000000    -0.691000000
H     3.593000000    -5.919000000    -0.593000000
H     2.840000000    -7.170000000    -0.992000000
O    -4.863000000     0.246000000    -4.490000000
H    -5.634000000     0.502000000    -3.983000000
H    -4.691000000    -0.657000000    -4.225000000
O    -5.105000000    -2.145000000    -0.878000000
H    -4.939000000    -3.079000000    -0.747000000
H    -5.114000000    -1.777000000     0.006000000
O     1.733000000     3.778000000     6.635000000
H     0.852000000     3.477000000     6.857000000
H     1.682000000     4.002000000     5.706000000
O    -3.226000000     2.181000000     3.719000000
H    -2.458000000     2.719000000     3.528000000
H    -2.873000000     1.408000000     4.161000000
O     4.270000000     4.756000000     4.559000000
H     4.757000000     5.111000000     5.303000000
H     4.589000000     3.858000000     4.472000000
