161
-3043.88695
C    -1.388000000     0.211000000    -0.664000000
H    -2.397000000     0.121000000    -1.059000000
C    -0.273000000    -0.499000000    -1.278000000
H    -0.334000000    -1.068000000    -2.202000000
C     0.940000000    -0.544000000    -0.643000000
C     2.075000000    -1.376000000    -1.062000000
H     1.734000000    -2.377000000    -1.332000000
H     2.519000000    -0.915000000    -1.947000000
H     2.837000000    -1.500000000    -0.290000000
C     1.090000000     0.081000000     0.589000000
H     1.964000000    -0.224000000     1.160000000
C     0.069000000     0.792000000     1.172000000
H     0.205000000     1.143000000     2.192000000
C    -1.220000000     0.831000000     0.623000000
C    -2.318000000     1.622000000     1.343000000
O    -2.056000000     2.303000000     2.289000000
O    -3.451000000     1.395000000     1.113000000
O     1.887000000    -2.166000000     3.173000000
H     1.342000000    -1.731000000     2.517000000
H     2.549000000    -1.515000000     3.405000000
O     1.878000000     1.152000000    -4.159000000
H     1.475000000     1.839000000    -3.628000000
H     1.426000000     1.204000000    -5.001000000
O     1.633000000     3.980000000     5.061000000
H     2.263000000     3.274000000     4.918000000
H     0.778000000     3.556000000     4.987000000
O    -2.612000000    -0.678000000    -3.988000000
H    -2.443000000    -0.962000000    -3.090000000
H    -3.560000000    -0.760000000    -4.091000000
O    -5.563000000    -0.968000000    -3.656000000
H    -5.116000000    -1.230000000    -2.851000000
H    -6.194000000    -1.668000000    -3.819000000
O    -4.317000000     2.305000000    -3.390000000
H    -4.515000000     2.398000000    -2.458000000
H    -5.152000000     2.061000000    -3.789000000
O     6.111000000     0.543000000    -3.408000000
H     6.005000000    -0.381000000    -3.633000000
H     7.056000000     0.660000000    -3.313000000
O    -5.819000000     6.283000000     1.472000000
H    -5.291000000     5.519000000     1.238000000
H    -5.755000000     6.335000000     2.425000000
O     8.103000000    -1.902000000    -1.265000000
H     7.232000000    -2.295000000    -1.206000000
H     8.010000000    -1.049000000    -0.841000000
O     3.028000000    -5.606000000    -2.043000000
H     3.894000000    -5.930000000    -1.797000000
H     2.590000000    -6.364000000    -2.431000000
O     6.454000000    -2.048000000    -3.563000000
H     7.231000000    -2.602000000    -3.485000000
H     5.725000000    -2.624000000    -3.336000000
O    -1.881000000     3.273000000    -2.473000000
H    -2.659000000     2.856000000    -2.843000000
H    -2.105000000     3.422000000    -1.554000000
O     2.532000000    -4.108000000    -5.458000000
H     2.317000000    -3.311000000    -4.974000000
H     3.401000000    -3.941000000    -5.822000000
O    -3.926000000     4.878000000    -0.668000000
H    -4.350000000     4.020000000    -0.635000000
H    -3.567000000     5.001000000     0.211000000
O    -2.022000000    -4.292000000    -1.743000000
H    -1.537000000    -4.965000000    -2.221000000
H    -1.955000000    -4.556000000    -0.825000000
O    -5.750000000     4.264000000     3.556000000
H    -5.542000000     4.153000000     4.483000000
H    -6.254000000     3.483000000     3.328000000
O     5.999000000     0.923000000     1.730000000
H     5.504000000     0.114000000     1.859000000
H     6.100000000     1.285000000     2.611000000
O     4.065000000    -3.081000000    -2.844000000
H     3.382000000    -2.486000000    -3.155000000
H     3.675000000    -3.952000000    -2.919000000
O    -0.331000000     4.343000000     1.755000000
H    -0.811000000     3.539000000     1.956000000
H     0.478000000     4.041000000     1.341000000
O    -6.018000000     1.238000000     2.427000000
H    -5.583000000     0.931000000     3.223000000
H    -5.302000000     1.409000000     1.815000000
O    -0.296000000     2.096000000     4.563000000
H    -1.042000000     2.084000000     3.963000000
H    -0.284000000     1.220000000     4.949000000
O     5.581000000    -2.406000000     2.755000000
H     5.093000000    -3.182000000     2.477000000
H     4.909000000    -1.797000000     3.060000000
O    -1.558000000     2.523000000     7.036000000
H    -1.981000000     2.854000000     6.244000000
H    -0.662000000     2.856000000     6.986000000
O    -4.852000000     2.264000000    -0.781000000
H    -4.334000000     1.770000000    -0.145000000
H    -5.760000000     2.111000000    -0.520000000
O    -1.451000000    -2.634000000     4.053000000
H    -1.223000000    -2.764000000     3.133000000
H    -2.208000000    -3.202000000     4.196000000
O    -2.537000000    -4.779000000     0.852000000
H    -2.662000000    -5.149000000     1.726000000
H    -1.968000000    -4.022000000     0.991000000
O    -3.437000000     2.506000000     4.642000000
H    -3.632000000     1.625000000     4.964000000
H    -3.094000000     2.368000000     3.759000000
O     0.635000000     2.405000000    -2.096000000
H     0.700000000     1.755000000    -1.396000000
H    -0.306000000     2.518000000    -2.231000000
O    -7.515000000     2.051000000     0.053000000
H    -7.229000000     1.874000000     0.950000000
H    -8.417000000     1.732000000     0.022000000
O    -1.715000000     6.058000000     4.666000000
H    -2.309000000     5.922000000     3.928000000
H    -0.919000000     6.414000000     4.270000000
O    -0.533000000    -2.714000000     1.202000000
H    -0.382000000    -1.932000000     0.670000000
H     0.062000000    -3.369000000     0.838000000
O    -5.113000000     3.623000000     6.383000000
H    -5.753000000     2.913000000     6.431000000
H    -4.394000000     3.264000000     5.863000000
O     0.141000000    -0.800000000     5.396000000
H     0.996000000    -1.111000000     5.101000000
H    -0.489000000    -1.308000000     4.884000000
O     2.418000000     4.345000000     1.238000000
H     2.701000000     5.256000000     1.310000000
H     3.128000000     3.910000000     0.767000000
O    -0.697000000    -1.334000000    -5.942000000
H    -0.512000000    -0.400000000    -6.042000000
H    -1.433000000    -1.368000000    -5.332000000
O     3.794000000    -4.061000000     1.377000000
H     4.212000000    -4.891000000     1.607000000
H     2.879000000    -4.290000000     1.214000000
O    -7.008000000    -1.244000000    -0.081000000
H    -6.857000000    -1.998000000     0.490000000
H    -6.161000000    -0.800000000    -0.121000000
O    -3.435000000     4.724000000     2.051000000
H    -2.765000000     4.062000000     2.218000000
H    -4.137000000     4.516000000     2.668000000
O    -3.979000000    -2.095000000    -1.885000000
H    -4.322000000    -1.768000000    -1.053000000
H    -3.352000000    -2.774000000    -1.635000000
O     4.016000000     2.039000000    -2.452000000
H     4.712000000     1.448000000    -2.739000000
H     3.233000000     1.722000000    -2.901000000
O    -4.908000000     0.065000000     4.739000000
H    -5.753000000     0.289000000     5.128000000
H    -4.842000000    -0.884000000     4.839000000
O     1.257000000    -4.647000000     0.055000000
H     0.729000000    -5.355000000    -0.314000000
H     1.989000000    -4.552000000    -0.555000000
O    -0.925000000     7.034000000     1.685000000
H    -0.970000000     6.081000000     1.608000000
H    -0.151000000     7.195000000     2.224000000
O     4.585000000     2.838000000     0.403000000
H     4.833000000     2.001000000     0.795000000
H     4.525000000     2.656000000    -0.534000000
O     5.573000000    -2.918000000    -0.446000000
H     5.146000000    -3.146000000    -1.272000000
H     5.018000000    -3.311000000     0.227000000
O    -4.233000000    -1.182000000     0.528000000
H    -4.244000000    -1.745000000     1.302000000
H    -3.811000000    -0.375000000     0.825000000
O     1.861000000    -1.563000000    -4.436000000
H     1.073000000    -1.666000000    -4.968000000
H     1.920000000    -0.621000000    -4.275000000
O     3.643000000    -0.145000000     3.340000000
H     3.247000000     0.313000000     2.598000000
H     3.895000000     0.552000000     3.945000000
