161
-3067.98138
C     0.687000000     0.009000000     1.317000000
H     1.182000000    -0.037000000     2.283000000
C    -0.602000000    -0.540000000     1.038000000
H    -1.174000000    -0.911000000     1.884000000
C    -1.089000000    -0.575000000    -0.240000000
C    -2.549000000    -1.007000000    -0.459000000
H    -2.749000000    -1.154000000    -1.523000000
H    -2.664000000    -1.961000000     0.059000000
H    -3.098000000    -0.214000000     0.052000000
C    -0.364000000    -0.033000000    -1.306000000
H    -0.767000000     0.019000000    -2.314000000
C     0.872000000     0.530000000    -1.026000000
H     1.434000000     1.021000000    -1.816000000
C     1.491000000     0.532000000     0.259000000
C     2.827000000     1.226000000     0.577000000
O     3.563000000     1.258000000    -0.414000000
O     3.004000000     1.841000000     1.632000000
O    -0.438000000    -4.374000000     3.692000000
H    -1.272000000    -4.141000000     3.283000000
H    -0.140000000    -3.565000000     4.107000000
O     1.565000000    -2.499000000    -2.524000000
H     1.414000000    -1.693000000    -2.030000000
H     2.141000000    -2.235000000    -3.241000000
O     3.270000000    -3.874000000     4.727000000
H     3.103000000    -3.060000000     5.202000000
H     3.835000000    -3.615000000     3.999000000
O    -1.204000000     3.824000000     1.529000000
H    -1.009000000     4.346000000     2.307000000
H    -1.613000000     3.029000000     1.870000000
O     6.005000000     2.544000000    -0.060000000
H     5.148000000     2.204000000    -0.319000000
H     6.170000000     3.266000000    -0.666000000
O    -6.290000000     1.992000000    -1.462000000
H    -5.576000000     2.546000000    -1.149000000
H    -7.074000000     2.531000000    -1.361000000
O     4.456000000    -2.410000000     2.483000000
H     4.407000000    -1.544000000     2.889000000
H     3.862000000    -2.357000000     1.734000000
O     2.431000000    -1.926000000    -5.232000000
H     1.593000000    -1.828000000    -5.684000000
H     3.061000000    -2.095000000    -5.932000000
O     4.494000000     0.355000000     3.305000000
H     5.306000000     0.851000000     3.408000000
H     3.950000000     0.901000000     2.737000000
O     3.698000000     5.544000000     4.634000000
H     3.773000000     6.472000000     4.856000000
H     3.413000000     5.539000000     3.720000000
O    -3.146000000    -3.766000000     2.734000000
H    -3.075000000    -4.718000000     2.805000000
H    -4.021000000    -3.616000000     2.376000000
O    -5.360000000    -3.070000000    -2.324000000
H    -5.438000000    -2.125000000    -2.190000000
H    -6.229000000    -3.342000000    -2.621000000
O     4.792000000     0.332000000    -5.895000000
H     4.367000000     0.385000000    -5.039000000
H     5.032000000    -0.590000000    -5.986000000
O    -3.837000000    -4.920000000    -3.717000000
H    -4.401000000    -4.191000000    -3.462000000
H    -4.434000000    -5.660000000    -3.825000000
O    -2.812000000     1.547000000     2.434000000
H    -3.586000000     1.939000000     2.838000000
H    -3.008000000     0.611000000     2.398000000
O     0.259000000     3.085000000    -3.534000000
H    -0.121000000     2.396000000    -4.079000000
H    -0.015000000     2.865000000    -2.644000000
O     2.902000000     3.791000000    -1.753000000
H     2.963000000     3.010000000    -1.202000000
H     3.801000000     3.953000000    -2.040000000
O    -0.089000000    -1.362000000    -5.986000000
H    -0.483000000    -2.095000000    -6.460000000
H    -0.276000000    -1.544000000    -5.065000000
O    -5.031000000    -3.722000000     0.435000000
H    -4.985000000    -2.804000000     0.169000000
H    -5.318000000    -4.185000000    -0.353000000
O     2.920000000    -1.312000000     5.740000000
H     3.241000000    -0.646000000     5.132000000
H     3.190000000    -0.998000000     6.603000000
O     0.328000000     5.486000000     3.164000000
H    -0.269000000     6.224000000     3.288000000
H     0.700000000     5.623000000     2.293000000
O     0.931000000     5.578000000    -1.996000000
H     1.617000000     4.912000000    -2.043000000
H     0.117000000     5.092000000    -2.130000000
O     6.995000000     1.875000000    -2.994000000
H     6.291000000     1.250000000    -3.167000000
H     6.546000000     2.708000000    -2.850000000
O     5.774000000     4.179000000    -2.676000000
H     5.276000000     4.676000000    -3.325000000
H     6.272000000     4.842000000    -2.198000000
O    -1.573000000    -5.812000000    -2.666000000
H    -1.813000000    -6.343000000    -1.907000000
H    -2.369000000    -5.328000000    -2.883000000
O    -1.597000000    -6.059000000     1.614000000
H    -1.022000000    -6.748000000     1.282000000
H    -1.238000000    -5.251000000     1.250000000
O     7.963000000     2.013000000     1.734000000
H     7.228000000     2.102000000     1.127000000
H     7.554000000     1.941000000     2.596000000
O    -6.048000000    -0.695000000    -0.646000000
H    -5.938000000     0.169000000    -1.043000000
H    -6.859000000    -1.033000000    -1.026000000
O     2.708000000    -2.776000000     0.224000000
H     2.789000000    -3.714000000     0.397000000
H     3.100000000    -2.657000000    -0.641000000
O     4.486000000    -2.581000000    -1.947000000
H     5.268000000    -2.914000000    -1.507000000
H     4.300000000    -3.229000000    -2.627000000
O    -0.829000000     1.704000000    -5.771000000
H    -1.680000000     1.323000000    -5.988000000
H    -0.284000000     0.953000000    -5.537000000
O     0.872000000     2.922000000     3.575000000
H     0.666000000     3.854000000     3.493000000
H     1.630000000     2.794000000     3.005000000
O    -6.082000000    -0.025000000     1.896000000
H    -5.304000000    -0.258000000     2.402000000
H    -5.898000000    -0.346000000     1.013000000
O     2.657000000     3.313000000    -4.772000000
H     1.804000000     3.317000000    -4.337000000
H     3.000000000     4.196000000    -4.636000000
O    -3.742000000    -0.983000000     3.197000000
H    -3.243000000    -1.795000000     3.104000000
H    -3.920000000    -0.919000000     4.136000000
O    -3.785000000     3.163000000    -0.841000000
H    -2.946000000     3.084000000    -1.296000000
H    -3.551000000     3.212000000     0.086000000
O    -0.043000000    -1.502000000     5.299000000
H    -0.524000000    -0.675000000     5.287000000
H     0.878000000    -1.244000000     5.251000000
O    -1.128000000    -2.623000000    -3.644000000
H    -0.466000000    -2.505000000    -2.962000000
H    -1.544000000    -3.459000000    -3.431000000
O    -2.114000000     4.825000000    -3.909000000
H    -1.307000000     4.337000000    -3.745000000
H    -1.874000000     5.466000000    -4.579000000
O     1.800000000     5.749000000     0.752000000
H     1.640000000     5.783000000    -0.191000000
H     2.659000000     5.333000000     0.834000000
O    -0.219000000    -3.720000000     0.313000000
H    -0.265000000    -2.851000000     0.712000000
H     0.519000000    -3.666000000    -0.295000000
O    -3.571000000    -1.049000000    -4.151000000
H    -3.157000000    -1.672000000    -3.553000000
H    -3.292000000    -1.331000000    -5.022000000
O     6.613000000     1.727000000     4.151000000
H     7.352000000     1.491000000     4.710000000
H     6.148000000     2.405000000     4.642000000
O     4.761000000     0.209000000    -2.524000000
H     4.384000000    -0.670000000    -2.474000000
H     4.538000000     0.613000000    -1.685000000
O    -1.162000000     1.446000000     4.653000000
H    -0.552000000     2.067000000     4.254000000
H    -1.744000000     1.189000000     3.938000000
O    -0.955000000     2.890000000    -0.999000000
H    -0.642000000     2.037000000    -0.698000000
H    -0.776000000     3.482000000    -0.269000000
O     4.332000000     4.400000000     2.002000000
H     5.201000000     4.182000000     1.665000000
H     3.882000000     3.558000000     2.066000000
O     1.471000000     0.776000000    -4.666000000
H     1.920000000     1.610000000    -4.530000000
H     2.117000000     0.225000000    -5.108000000
