161
-3042.07782
C     0.297000000     0.363000000     1.440000000
H     0.264000000     0.581000000     2.504000000
C    -0.541000000    -0.680000000     1.023000000
H    -1.188000000    -1.211000000     1.716000000
C    -0.721000000    -0.927000000    -0.366000000
C    -1.680000000    -1.946000000    -0.812000000
H    -1.105000000    -2.853000000    -1.011000000
H    -2.415000000    -2.213000000    -0.050000000
H    -2.273000000    -1.619000000    -1.669000000
C    -0.070000000    -0.123000000    -1.326000000
H    -0.298000000    -0.200000000    -2.386000000
C     0.876000000     0.813000000    -0.918000000
H     1.455000000     1.432000000    -1.600000000
C     0.985000000     1.111000000     0.453000000
C     1.967000000     2.171000000     0.884000000
O     2.402000000     2.920000000     0.050000000
O     2.047000000     2.383000000     2.069000000
O     1.145000000    -3.167000000    -2.439000000
H     1.056000000    -3.004000000    -1.500000000
H     0.926000000    -4.093000000    -2.544000000
O     1.448000000    -0.604000000     5.046000000
H     1.480000000    -0.370000000     5.974000000
H     2.202000000    -0.159000000     4.660000000
O    -2.563000000     4.301000000    -0.012000000
H    -1.748000000     4.692000000     0.303000000
H    -2.494000000     4.339000000    -0.966000000
O     5.556000000     2.904000000     0.719000000
H     5.052000000     2.639000000    -0.050000000
H     4.899000000     3.032000000     1.404000000
O     2.022000000    -2.556000000     3.203000000
H     1.711000000    -1.809000000     3.715000000
H     1.460000000    -2.566000000     2.428000000
O    -3.999000000    -6.756000000    -2.088000000
H    -3.689000000    -5.872000000    -1.893000000
H    -3.249000000    -7.188000000    -2.497000000
O     3.903000000    -0.563000000    -1.948000000
H     4.262000000    -0.401000000    -2.820000000
H     3.702000000    -1.499000000    -1.942000000
O     5.184000000    -0.629000000     5.446000000
H     5.006000000    -1.418000000     5.958000000
H     4.361000000    -0.447000000     4.992000000
O     3.404000000     0.743000000     3.790000000
H     4.136000000     1.338000000     3.951000000
H     2.814000000     1.238000000     3.222000000
O     2.567000000    -2.224000000    -6.761000000
H     2.003000000    -1.825000000    -6.098000000
H     2.800000000    -3.077000000    -6.394000000
O    -4.921000000     1.961000000    -4.777000000
H    -4.336000000     1.378000000    -4.293000000
H    -4.633000000     1.888000000    -5.687000000
O    -6.739000000    -3.294000000    -1.376000000
H    -6.707000000    -2.340000000    -1.445000000
H    -6.087000000    -3.508000000    -0.708000000
O    -0.611000000     3.657000000    -4.940000000
H    -0.012000000     4.238000000    -4.470000000
H    -1.383000000     3.602000000    -4.376000000
O     3.813000000     5.536000000    -1.885000000
H     4.628000000     5.367000000    -1.412000000
H     4.088000000     5.691000000    -2.788000000
O     1.151000000     4.701000000    -2.995000000
H     1.903000000     5.129000000    -2.586000000
H     1.050000000     3.881000000    -2.512000000
O    -0.876000000    -2.692000000    -6.654000000
H    -0.149000000    -2.515000000    -6.057000000
H    -0.586000000    -3.445000000    -7.169000000
O    -3.464000000    -3.894000000    -2.547000000
H    -3.928000000    -3.692000000    -1.734000000
H    -3.797000000    -3.257000000    -3.178000000
O     1.107000000    -3.953000000     5.348000000
H     1.437000000    -3.574000000     4.533000000
H     0.662000000    -4.755000000     5.075000000
O    -0.607000000     6.143000000     0.634000000
H    -0.650000000     6.661000000     1.438000000
H     0.319000000     5.920000000     0.542000000
O    -1.265000000    -4.978000000    -3.782000000
H    -0.917000000    -4.117000000    -3.547000000
H    -2.116000000    -5.019000000    -3.347000000
O     6.886000000     0.566000000     1.900000000
H     6.738000000    -0.319000000     1.565000000
H     6.408000000     1.134000000     1.296000000
O    -3.668000000     1.125000000    -1.296000000
H    -2.941000000     0.798000000    -1.827000000
H    -3.273000000     1.330000000    -0.449000000
O    -2.453000000     3.934000000    -2.874000000
H    -3.145000000     4.562000000    -3.083000000
H    -2.913000000     3.198000000    -2.469000000
O     1.895000000    -6.057000000    -1.682000000
H     2.393000000    -6.072000000    -0.864000000
H     2.498000000    -6.409000000    -2.336000000
O     5.529000000    -1.409000000     0.346000000
H     4.808000000    -0.905000000    -0.032000000
H     5.722000000    -2.078000000    -0.311000000
O    -0.451000000    -4.754000000     1.621000000
H    -0.688000000    -5.598000000     2.004000000
H    -1.287000000    -4.366000000     1.361000000
O    -0.388000000     1.043000000    -5.641000000
H     0.446000000     0.985000000    -6.108000000
H    -0.578000000     1.980000000    -5.606000000
O     0.467000000     4.217000000     3.095000000
H     0.215000000     4.865000000     2.437000000
H     1.010000000     3.590000000     2.617000000
O    -4.296000000    -2.973000000     2.214000000
H    -4.242000000    -3.623000000     2.914000000
H    -4.795000000    -2.251000000     2.596000000
O     5.605000000     2.422000000     4.636000000
H     5.941000000     1.778000000     5.261000000
H     6.373000000     2.935000000     4.385000000
O     5.555000000     3.081000000    -4.276000000
H     5.442000000     2.673000000    -3.417000000
H     5.131000000     3.935000000    -4.193000000
O    -3.805000000    -0.231000000     4.715000000
H    -2.869000000    -0.113000000     4.877000000
H    -3.932000000     0.064000000     3.814000000
O     1.893000000     7.927000000     1.923000000
H     2.618000000     8.409000000     1.524000000
H     2.122000000     7.006000000     1.799000000
O    -4.754000000     0.866000000     2.064000000
H    -4.785000000     1.576000000     2.706000000
H    -3.990000000     1.065000000     1.524000000
O     0.257000000    -7.812000000    -0.217000000
H     1.060000000    -8.282000000    -0.442000000
H     0.447000000    -6.899000000    -0.431000000
O     4.149000000     5.887000000     5.548000000
H     4.844000000     6.517000000     5.355000000
H     4.224000000     5.229000000     4.858000000
O     0.840000000    -1.558000000    -4.900000000
H     0.983000000    -1.665000000    -3.959000000
H     0.434000000    -0.695000000    -4.984000000
O    -4.752000000    -4.162000000    -0.029000000
H    -4.498000000    -3.748000000     0.796000000
H    -4.878000000    -5.084000000     0.195000000
O    -1.113000000    -0.225000000     5.140000000
H    -1.037000000     0.728000000     5.103000000
H    -0.211000000    -0.540000000     5.072000000
O     2.042000000     5.534000000     0.236000000
H     2.217000000     4.604000000     0.091000000
H     2.366000000     5.964000000    -0.556000000
O     1.823000000    -3.646000000     0.606000000
H     2.519000000    -4.293000000     0.726000000
H     1.027000000    -4.094000000     0.892000000
O    -2.797000000     0.163000000    -4.344000000
H    -3.053000000    -0.538000000    -4.944000000
H    -1.996000000     0.523000000    -4.725000000
O     1.487000000     5.132000000     6.005000000
H     2.360000000     5.458000000     5.786000000
H     1.134000000     4.815000000     5.173000000
O     4.109000000     2.130000000    -1.911000000
H     3.906000000     1.201000000    -2.024000000
H     3.448000000     2.446000000    -1.295000000
O    -1.901000000    -4.013000000     5.869000000
H    -1.370000000    -3.217000000     5.834000000
H    -1.264000000    -4.721000000     5.966000000
O    -1.181000000     2.643000000     4.856000000
H    -0.408000000     3.132000000     4.575000000
H    -1.914000000     3.232000000     4.678000000
O    -2.358000000     1.763000000     0.891000000
H    -1.403000000     1.712000000     0.845000000
H    -2.548000000     2.701000000     0.906000000
O     3.744000000     4.135000000     3.368000000
H     4.134000000     3.411000000     3.857000000
H     3.075000000     3.721000000     2.822000000
