161
-3040.28150
C    -0.066000000    -0.449000000    -1.422000000
H    -0.019000000    -0.664000000    -2.486000000
C    -0.650000000     0.740000000    -0.937000000
H    -1.239000000     1.413000000    -1.556000000
C    -0.548000000     1.034000000     0.447000000
C    -1.053000000     2.324000000     0.927000000
H    -0.212000000     2.999000000     1.101000000
H    -1.704000000     2.807000000     0.195000000
H    -1.515000000     2.138000000     1.899000000
C     0.106000000     0.174000000     1.267000000
H     0.165000000     0.309000000     2.344000000
C     0.601000000    -1.050000000     0.812000000
H     0.948000000    -1.833000000     1.481000000
C     0.661000000    -1.318000000    -0.567000000
C     1.273000000    -2.601000000    -0.980000000
O     2.304000000    -3.001000000    -0.465000000
O     0.941000000    -3.014000000    -2.062000000
O    -3.682000000     7.993000000    -0.350000000
H    -3.208000000     8.436000000    -1.054000000
H    -3.336000000     7.101000000    -0.353000000
O    -1.636000000    -3.988000000    -1.711000000
H    -0.790000000    -3.551000000    -1.808000000
H    -1.659000000    -4.267000000    -0.796000000
O    -0.191000000    -5.457000000    -5.191000000
H     0.413000000    -5.996000000    -5.702000000
H     0.261000000    -5.314000000    -4.360000000
O    -2.629000000     4.440000000     3.714000000
H    -1.970000000     3.787000000     3.948000000
H    -2.131000000     5.147000000     3.303000000
O     3.811000000    -0.392000000     3.726000000
H     4.176000000     0.367000000     3.272000000
H     4.452000000    -0.594000000     4.408000000
O    -3.990000000    -1.133000000    -2.757000000
H    -3.394000000    -0.892000000    -3.466000000
H    -3.813000000    -2.061000000    -2.600000000
O     0.069000000    -8.081000000    -3.602000000
H     0.270000000    -7.349000000    -3.019000000
H     0.385000000    -8.854000000    -3.134000000
O     3.007000000     0.796000000    -0.587000000
H     3.750000000     0.441000000    -1.076000000
H     2.333000000     0.119000000    -0.652000000
O    -1.204000000     3.711000000    -4.609000000
H    -1.990000000     4.097000000    -4.998000000
H    -0.550000000     3.747000000    -5.307000000
O     3.308000000    -2.955000000     2.210000000
H     3.075000000    -2.902000000     1.283000000
H     3.387000000    -2.043000000     2.489000000
O     1.863000000     2.590000000     3.611000000
H     2.149000000     2.171000000     2.799000000
H     2.542000000     3.238000000     3.799000000
O     4.610000000    -5.088000000    -4.991000000
H     4.653000000    -5.418000000    -4.093000000
H     4.466000000    -4.146000000    -4.892000000
O     2.198000000     6.809000000    -1.213000000
H     3.072000000     6.686000000    -1.585000000
H     1.611000000     6.373000000    -1.832000000
O    -2.249000000    -5.764000000     0.315000000
H    -2.525000000    -6.097000000     1.169000000
H    -1.363000000    -6.106000000     0.199000000
O    -1.346000000    -3.166000000    -5.833000000
H    -0.828000000    -3.971000000    -5.845000000
H    -2.054000000    -3.345000000    -5.216000000
O    -2.045000000     5.399000000     0.065000000
H    -1.382000000     4.971000000    -0.478000000
H    -2.857000000     4.936000000    -0.140000000
O    -3.404000000    -3.831000000    -3.857000000
H    -4.308000000    -4.055000000    -3.636000000
H    -2.953000000    -3.790000000    -3.014000000
O     0.750000000    -5.755000000    -2.310000000
H     1.619000000    -6.090000000    -2.087000000
H     0.745000000    -4.860000000    -1.973000000
O    -6.785000000     1.965000000    -2.110000000
H    -7.025000000     1.519000000    -2.923000000
H    -5.969000000     2.420000000    -2.319000000
O    -5.291000000    -0.011000000    -0.103000000
H    -5.086000000     0.916000000    -0.228000000
H    -5.333000000    -0.368000000    -0.990000000
O     2.201000000     3.256000000     0.413000000
H     2.296000000     3.638000000    -0.459000000
H     2.179000000     2.312000000     0.260000000
O     2.778000000    -5.449000000     3.188000000
H     2.983000000    -4.586000000     2.827000000
H     2.690000000    -5.300000000     4.129000000
O     1.752000000    -2.641000000    -4.619000000
H     1.496000000    -2.923000000    -3.741000000
H     0.926000000    -2.414000000    -5.048000000
O     5.853000000    -4.262000000     2.219000000
H     4.979000000    -3.889000000     2.100000000
H     5.712000000    -5.209000000     2.206000000
O     3.555000000    -5.485000000    -0.595000000
H     2.929000000    -4.763000000    -0.545000000
H     4.365000000    -5.078000000    -0.902000000
O    -1.895000000    -0.448000000    -4.557000000
H    -1.302000000     0.136000000    -5.030000000
H    -1.436000000    -1.288000000    -4.536000000
O    -2.978000000     1.975000000     5.413000000
H    -3.233000000     2.652000000     6.039000000
H    -2.120000000     2.254000000     5.094000000
O    -1.059000000    -3.116000000     3.726000000
H    -0.903000000    -2.332000000     4.253000000
H    -0.238000000    -3.253000000     3.252000000
O    -3.069000000    -0.282000000    -7.146000000
H    -2.232000000    -0.194000000    -7.601000000
H    -2.832000000    -0.555000000    -6.260000000
O     0.330000000    -1.975000000     6.027000000
H     0.694000000    -1.356000000     5.394000000
H    -0.458000000    -1.543000000     6.358000000
O     4.485000000    -2.514000000    -3.764000000
H     3.562000000    -2.748000000    -3.670000000
H     4.719000000    -2.120000000    -2.923000000
O     2.013000000     5.790000000     2.728000000
H     1.862000000     5.013000000     2.190000000
H     1.925000000     6.524000000     2.120000000
O     2.536000000    -7.192000000     1.228000000
H     2.292000000    -6.664000000     1.988000000
H     3.150000000    -6.642000000     0.741000000
O     6.136000000    -4.096000000    -1.602000000
H     6.554000000    -4.872000000    -1.228000000
H     6.602000000    -3.945000000    -2.424000000
O     2.751000000     3.862000000    -2.513000000
H     2.415000000     2.983000000    -2.686000000
H     3.696000000     3.787000000    -2.640000000
O    -4.384000000     3.792000000    -0.692000000
H    -4.124000000     3.124000000    -1.327000000
H    -4.970000000     4.370000000    -1.179000000
O    -0.502000000     3.061000000     4.453000000
H     0.262000000     3.031000000     3.877000000
H    -0.231000000     3.622000000     5.180000000
O     1.152000000    -0.124000000     4.427000000
H     2.100000000    -0.240000000     4.494000000
H     1.044000000     0.705000000     3.961000000
O    -5.650000000     1.113000000     5.186000000
H    -4.780000000     1.226000000     4.802000000
H    -5.982000000     2.004000000     5.294000000
O     4.409000000     1.075000000    -3.393000000
H     3.705000000     0.484000000    -3.127000000
H     4.002000000     1.660000000    -4.032000000
O     1.536000000     1.541000000    -3.213000000
H     0.904000000     1.401000000    -2.507000000
H     1.068000000     1.281000000    -4.007000000
O     0.473000000     5.295000000    -2.582000000
H     1.205000000     4.719000000    -2.359000000
H    -0.083000000     4.765000000    -3.153000000
O    -0.058000000     1.048000000    -5.940000000
H    -0.129000000     1.952000000    -6.247000000
H     0.111000000     0.538000000    -6.733000000
O    -3.650000000     1.982000000    -2.627000000
H    -3.084000000     2.262000000    -3.346000000
H    -3.661000000     1.027000000    -2.688000000
O     4.108000000     1.532000000     1.701000000
H     3.854000000     1.338000000     0.799000000
H     4.813000000     2.174000000     1.618000000
O    -1.344000000     6.488000000     2.588000000
H    -0.505000000     6.948000000     2.586000000
H    -1.502000000     6.274000000     1.668000000
O     4.475000000    -1.511000000    -1.284000000
H     5.350000000    -1.887000000    -1.188000000
H     3.899000000    -2.127000000    -0.832000000
O    -5.640000000     5.160000000     1.769000000
H    -5.137000000     4.432000000     1.404000000
H    -5.184000000     5.384000000     2.580000000
