161
-3006.51117
C     0.737000000    -0.607000000    -1.169000000
H     0.973000000    -1.297000000    -1.976000000
C     0.832000000    -0.915000000     0.179000000
H     1.370000000    -1.805000000     0.496000000
C     0.227000000    -0.190000000     1.200000000
C     0.331000000    -0.794000000     2.532000000
H     0.669000000    -1.831000000     2.478000000
H     0.989000000    -0.277000000     3.233000000
H    -0.592000000    -0.907000000     3.103000000
C    -0.752000000     0.744000000     0.883000000
H    -1.466000000     1.180000000     1.578000000
C    -0.841000000     1.245000000    -0.431000000
H    -1.537000000     2.015000000    -0.755000000
C    -0.049000000     0.544000000    -1.463000000
C    -0.243000000     0.882000000    -2.911000000
O    -1.009000000     1.754000000    -3.164000000
O     0.361000000     0.253000000    -3.807000000
O     4.516000000     2.336000000     2.343000000
H     4.600000000     1.462000000     1.962000000
H     5.089000000     2.319000000     3.110000000
O     3.923000000     3.168000000    -5.374000000
H     3.008000000     3.411000000    -5.231000000
H     3.916000000     2.687000000    -6.201000000
O     1.584000000     4.538000000    -4.945000000
H     0.884000000     3.893000000    -5.041000000
H     1.154000000     5.382000000    -5.081000000
O    -2.311000000     2.480000000     4.380000000
H    -2.127000000     2.870000000     5.235000000
H    -1.512000000     2.624000000     3.874000000
O    -3.354000000    -1.571000000    -2.045000000
H    -2.530000000    -1.924000000    -2.382000000
H    -3.181000000    -1.402000000    -1.119000000
O     3.379000000     1.064000000    -1.138000000
H     3.452000000     0.429000000    -0.425000000
H     4.282000000     1.322000000    -1.322000000
O     3.773000000    -0.578000000     3.271000000
H     3.806000000     0.141000000     3.902000000
H     3.551000000    -1.347000000     3.797000000
O     3.047000000    -3.489000000    -1.109000000
H     3.448000000    -3.918000000    -0.353000000
H     3.763000000    -3.000000000    -1.515000000
O    -5.042000000     2.928000000     4.547000000
H    -5.298000000     2.857000000     5.466000000
H    -4.153000000     2.574000000     4.518000000
O    -4.465000000     1.967000000     1.070000000
H    -4.161000000     2.851000000     1.279000000
H    -4.599000000     1.978000000     0.123000000
O     1.624000000    -0.040000000    -6.047000000
H     0.977000000     0.168000000    -5.373000000
H     2.373000000     0.518000000    -5.840000000
O    -1.236000000     4.404000000     2.125000000
H    -1.287000000     4.698000000     3.034000000
H    -0.345000000     4.066000000     2.032000000
O     0.053000000     6.788000000    -2.106000000
H    -0.437000000     6.019000000    -1.814000000
H     0.911000000     6.696000000    -1.690000000
O     1.314000000     2.658000000     6.101000000
H     1.389000000     3.481000000     6.584000000
H     1.059000000     2.015000000     6.762000000
O     2.910000000    -0.292000000    -3.496000000
H     3.125000000     0.259000000    -2.743000000
H     1.962000000    -0.204000000    -3.593000000
O    -5.981000000    -0.967000000    -1.571000000
H    -5.034000000    -0.837000000    -1.513000000
H    -6.314000000    -0.682000000    -0.720000000
O     0.336000000     2.037000000     3.703000000
H     0.622000000     2.133000000     4.611000000
H     0.318000000     1.091000000     3.556000000
O    -4.869000000    -0.307000000     2.641000000
H    -4.618000000     0.382000000     2.026000000
H    -5.087000000    -1.056000000     2.086000000
O    -3.386000000     0.944000000    -3.184000000
H    -3.445000000     0.183000000    -2.605000000
H    -2.451000000     1.146000000    -3.219000000
O    -5.054000000     4.927000000    -2.808000000
H    -5.779000000     5.472000000    -2.504000000
H    -5.095000000     4.145000000    -2.257000000
O    -0.425000000     2.834000000    -5.511000000
H    -1.113000000     3.461000000    -5.733000000
H    -0.712000000     2.447000000    -4.684000000
O     1.843000000     3.382000000     2.141000000
H     2.620000000     2.824000000     2.179000000
H     1.218000000     2.963000000     2.732000000
O     0.436000000     1.611000000    -8.404000000
H     0.218000000     0.815000000    -8.889000000
H     0.425000000     1.343000000    -7.485000000
O     0.849000000    -4.130000000    -2.883000000
H     1.205000000    -4.061000000    -1.997000000
H     0.138000000    -3.491000000    -2.906000000
O    -2.531000000    -4.690000000     3.414000000
H    -3.395000000    -4.290000000     3.513000000
H    -2.291000000    -4.520000000     2.503000000
O    -4.154000000    -1.448000000    -4.663000000
H    -4.030000000    -0.549000000    -4.359000000
H    -4.149000000    -1.974000000    -3.864000000
O    -2.762000000    -0.319000000     4.635000000
H    -2.773000000     0.541000000     5.055000000
H    -3.461000000    -0.276000000     3.982000000
O     4.323000000    -4.242000000     1.397000000
H     5.229000000    -3.934000000     1.370000000
H     3.855000000    -3.568000000     1.891000000
O    -2.359000000     6.373000000     0.516000000
H    -3.311000000     6.402000000     0.605000000
H    -2.120000000     5.485000000     0.785000000
O     2.819000000     0.014000000     6.030000000
H     3.578000000    -0.233000000     6.559000000
H     2.087000000     0.014000000     6.647000000
O    -3.211000000     3.967000000    -4.929000000
H    -3.898000000     4.334000000    -4.373000000
H    -3.647000000     3.270000000    -5.419000000
O     0.069000000    -6.267000000     0.709000000
H     0.202000000    -6.896000000     1.417000000
H     0.950000000    -6.082000000     0.383000000
O    -3.146000000    -1.342000000     0.518000000
H    -2.961000000    -2.258000000     0.725000000
H    -2.627000000    -0.844000000     1.150000000
O    -2.339000000    -4.249000000     0.691000000
H    -2.800000000    -4.642000000    -0.050000000
H    -1.474000000    -4.658000000     0.679000000
O    -2.833000000     1.733000000    -7.140000000
H    -3.760000000     1.965000000    -7.101000000
H    -2.794000000     0.843000000    -6.789000000
O     3.050000000    -4.103000000    -4.596000000
H     2.354000000    -3.948000000    -3.958000000
H     3.713000000    -3.443000000    -4.393000000
O     2.710000000    -6.070000000     0.151000000
H     3.312000000    -6.734000000    -0.186000000
H     3.236000000    -5.561000000     0.768000000
O     1.805000000     3.290000000    -1.008000000
H     2.345000000     2.515000000    -1.159000000
H     1.494000000     3.195000000    -0.108000000
O     0.453000000    -4.710000000     4.209000000
H     1.000000000    -5.493000000     4.139000000
H    -0.230000000    -4.836000000     3.549000000
O     3.446000000    -3.020000000     4.737000000
H     3.409000000    -3.959000000     4.557000000
H     4.171000000    -2.923000000     5.355000000
O     4.336000000    -0.536000000     0.729000000
H     3.937000000    -0.629000000     1.594000000
H     4.381000000    -1.430000000     0.389000000
O    -1.160000000    -1.927000000    -3.771000000
H    -0.629000000    -1.136000000    -3.858000000
H    -1.061000000    -2.376000000    -4.611000000
O     0.589000000    -2.651000000     6.217000000
H     0.521000000    -3.260000000     5.481000000
H     1.326000000    -2.083000000     5.990000000
O    -5.203000000     2.545000000    -1.704000000
H    -4.540000000     2.145000000    -2.266000000
H    -6.032000000     2.178000000    -2.012000000
O    -1.893000000     4.273000000    -2.309000000
H    -1.668000000     3.370000000    -2.534000000
H    -2.490000000     4.551000000    -3.004000000
O     1.207000000    -2.603000000    -6.951000000
H     1.189000000    -1.646000000    -6.963000000
H     1.682000000    -2.823000000    -6.150000000
O    -2.213000000    -2.436000000     6.502000000
H    -2.354000000    -1.895000000     5.725000000
H    -1.267000000    -2.407000000     6.644000000
O     5.137000000    -0.117000000    -4.916000000
H     4.312000000    -0.214000000    -4.441000000
H     5.776000000     0.113000000    -4.242000000
