161
-3051.09292
C    -0.728000000     0.217000000    -1.284000000
H    -1.218000000     0.539000000    -2.199000000
C    -0.653000000     1.116000000    -0.184000000
H    -1.051000000     2.125000000    -0.259000000
C    -0.012000000     0.726000000     0.977000000
C     0.216000000     1.775000000     2.066000000
H     0.903000000     1.450000000     2.851000000
H     0.645000000     2.696000000     1.667000000
H    -0.785000000     1.990000000     2.446000000
C     0.547000000    -0.536000000     1.078000000
H     1.156000000    -0.686000000     1.966000000
C     0.492000000    -1.465000000    -0.010000000
H     1.038000000    -2.397000000     0.117000000
C    -0.214000000    -1.087000000    -1.155000000
C    -0.104000000    -1.923000000    -2.386000000
O     0.544000000    -2.954000000    -2.317000000
O    -0.772000000    -1.594000000    -3.367000000
O    -0.264000000    -5.314000000    -1.124000000
H    -0.586000000    -5.802000000    -1.882000000
H    -0.335000000    -4.396000000    -1.383000000
O    -4.388000000    -2.188000000    -4.979000000
H    -3.563000000    -2.337000000    -5.440000000
H    -5.058000000    -2.532000000    -5.570000000
O    -2.216000000     1.449000000     5.197000000
H    -2.053000000     0.537000000     4.955000000
H    -2.574000000     1.401000000     6.084000000
O     0.232000000     7.414000000     2.533000000
H     0.229000000     6.933000000     1.705000000
H     1.159000000     7.515000000     2.748000000
O    -4.423000000     3.497000000    -3.556000000
H    -3.894000000     3.419000000    -4.351000000
H    -5.261000000     3.846000000    -3.859000000
O    -0.084000000     4.941000000    -3.342000000
H     0.543000000     4.622000000    -2.692000000
H     0.460000000     5.259000000    -4.063000000
O    -3.769000000    -5.123000000    -3.354000000
H    -4.044000000    -4.497000000    -2.684000000
H    -2.875000000    -4.860000000    -3.575000000
O     2.081000000    -4.493000000     2.248000000
H     1.792000000    -5.038000000     1.516000000
H     2.649000000    -5.066000000     2.763000000
O    -3.052000000     3.602000000    -5.862000000
H    -2.878000000     4.413000000    -6.339000000
H    -2.201000000     3.166000000    -5.812000000
O     2.409000000     4.889000000    -1.043000000
H     2.748000000     4.201000000    -0.470000000
H     3.062000000     4.966000000    -1.738000000
O    -2.517000000     5.032000000     0.486000000
H    -1.650000000     5.355000000     0.731000000
H    -2.407000000     4.700000000    -0.405000000
O     0.031000000     5.759000000     0.224000000
H     0.457000000     5.156000000    -0.386000000
H    -0.027000000     6.585000000    -0.257000000
O     0.087000000     0.553000000    -4.822000000
H     0.700000000     0.923000000    -4.188000000
H    -0.264000000    -0.226000000    -4.390000000
O    -1.953000000    -1.997000000     2.587000000
H    -1.402000000    -2.683000000     2.965000000
H    -1.407000000    -1.598000000     1.910000000
O     5.457000000    -0.704000000    -0.265000000
H     4.860000000    -0.355000000     0.398000000
H     4.888000000    -1.166000000    -0.880000000
O    -1.576000000     6.333000000     4.863000000
H    -1.038000000     6.244000000     4.076000000
H    -2.476000000     6.242000000     4.549000000
O     2.746000000     2.412000000     0.349000000
H     3.281000000     1.872000000     0.931000000
H     2.010000000     1.848000000     0.109000000
O     2.716000000     5.065000000     2.289000000
H     2.081000000     4.778000000     1.633000000
H     2.578000000     4.475000000     3.030000000
O    -4.462000000    -0.684000000     2.347000000
H    -4.312000000     0.105000000     2.869000000
H    -3.674000000    -1.211000000     2.476000000
O    -1.641000000    -4.615000000    -7.097000000
H    -0.782000000    -5.010000000    -7.249000000
H    -1.447000000    -3.740000000    -6.762000000
O     2.508000000    -4.075000000    -6.884000000
H     1.934000000    -3.504000000    -7.393000000
H     2.472000000    -3.721000000    -5.995000000
O     2.172000000     0.251000000    -2.863000000
H     2.493000000     0.031000000    -3.737000000
H     2.789000000     0.908000000    -2.539000000
O     3.381000000    -2.467000000    -1.786000000
H     2.444000000    -2.284000000    -1.717000000
H     3.533000000    -2.585000000    -2.724000000
O     1.461000000     0.480000000    -7.202000000
H     1.249000000     0.761000000    -6.312000000
H     2.091000000    -0.231000000    -7.085000000
O     2.819000000    -0.780000000    -5.286000000
H     3.676000000    -1.039000000    -5.623000000
H     2.364000000    -1.607000000    -5.126000000
O    -2.239000000     3.795000000    -2.075000000
H    -2.960000000     3.788000000    -2.705000000
H    -1.462000000     3.978000000    -2.602000000
O    -4.929000000     3.139000000     1.154000000
H    -4.703000000     2.742000000     1.995000000
H    -4.088000000     3.261000000     0.713000000
O     3.511000000    -5.743000000    -4.171000000
H     3.232000000    -6.371000000    -4.837000000
H     4.143000000    -6.225000000    -3.638000000
O    -1.170000000    -4.513000000    -3.932000000
H    -0.840000000    -4.865000000    -4.759000000
H    -0.556000000    -3.814000000    -3.707000000
O     0.530000000    -6.051000000    -5.976000000
H     1.226000000    -5.422000000    -6.169000000
H     0.984000000    -6.888000000    -5.880000000
O    -6.371000000     0.117000000    -3.863000000
H    -6.476000000    -0.015000000    -4.805000000
H    -5.548000000    -0.324000000    -3.650000000
O     3.381000000    -2.132000000     2.113000000
H     4.219000000    -2.523000000     1.866000000
H     2.782000000    -2.875000000     2.186000000
O     1.795000000     1.819000000     7.150000000
H     1.322000000     2.606000000     6.878000000
H     1.944000000     1.941000000     8.087000000
O     1.793000000     3.634000000     4.345000000
H     2.366000000     2.981000000     4.748000000
H     0.934000000     3.471000000     4.735000000
O    -1.597000000     0.685000000    -6.742000000
H    -1.062000000     0.640000000    -5.949000000
H    -1.009000000     1.041000000    -7.408000000
O     3.934000000     0.523000000     2.009000000
H     3.558000000    -0.355000000     2.065000000
H     4.357000000     0.656000000     2.857000000
O    -0.634000000     3.416000000     6.030000000
H    -1.371000000     3.888000000     6.417000000
H    -1.041000000     2.768000000     5.455000000
O     0.077000000    -3.485000000     4.153000000
H     0.903000000    -3.644000000     3.696000000
H     0.294000000    -3.577000000     5.080000000
O     1.793000000    -6.431000000     0.325000000
H     2.478000000    -6.622000000    -0.315000000
H     1.046000000    -6.145000000    -0.202000000
O    -4.402000000     2.239000000     3.650000000
H    -3.628000000     2.018000000     4.169000000
H    -5.135000000     2.140000000     4.258000000
O    -1.591000000    -2.152000000    -5.834000000
H    -1.573000000    -1.358000000    -6.368000000
H    -1.372000000    -1.852000000    -4.952000000
O    -3.074000000    -0.630000000    -2.926000000
H    -3.516000000    -1.060000000    -3.658000000
H    -2.240000000    -1.092000000    -2.845000000
O     2.194000000    -3.298000000    -4.373000000
H     1.583000000    -3.213000000    -3.641000000
H     2.480000000    -4.211000000    -4.342000000
O    -3.598000000    -3.095000000    -0.865000000
H    -4.492000000    -2.755000000    -0.839000000
H    -3.140000000    -2.519000000    -1.478000000
O     3.505000000     1.188000000     5.040000000
H     3.049000000     0.377000000     4.818000000
H     3.112000000     1.466000000     5.867000000
O     4.620000000    -5.020000000    -0.900000000
H     4.593000000    -5.664000000    -1.608000000
H     4.170000000    -4.254000000    -1.257000000
O    -4.695000000     1.222000000    -1.478000000
H    -4.336000000     2.103000000    -1.588000000
H    -4.107000000     0.660000000    -1.983000000
O     3.673000000    -1.617000000     4.687000000
H     3.829000000    -1.835000000     3.768000000
H     4.353000000    -2.091000000     5.164000000
