161
-3028.61937
C    -1.222000000     0.305000000    -0.769000000
H    -2.182000000     0.532000000    -1.227000000
C    -0.890000000     0.891000000     0.475000000
H    -1.573000000     1.653000000     0.842000000
C     0.310000000     0.569000000     1.019000000
C     0.739000000     1.423000000     2.160000000
H     0.167000000     2.352000000     2.099000000
H     0.593000000     0.886000000     3.100000000
H     1.824000000     1.537000000     2.114000000
C     1.116000000    -0.432000000     0.506000000
H     1.988000000    -0.787000000     1.049000000
C     0.758000000    -1.037000000    -0.662000000
H     1.438000000    -1.853000000    -0.891000000
C    -0.361000000    -0.662000000    -1.403000000
C    -0.794000000    -1.544000000    -2.495000000
O     0.047000000    -2.233000000    -3.038000000
O    -1.952000000    -1.598000000    -2.874000000
O    -5.430000000    -1.355000000     0.961000000
H    -5.205000000    -2.258000000     1.183000000
H    -4.682000000    -1.041000000     0.451000000
O     0.219000000    -4.629000000    -1.543000000
H    -0.543000000    -5.051000000    -1.943000000
H     0.206000000    -3.736000000    -1.887000000
O    -1.672000000     3.005000000     5.215000000
H    -1.545000000     2.060000000     5.302000000
H    -2.482000000     3.182000000     5.692000000
O    -1.613000000     2.713000000    -5.831000000
H    -1.617000000     3.496000000    -6.382000000
H    -2.204000000     2.926000000    -5.109000000
O     1.361000000     2.705000000    -0.882000000
H     0.782000000     2.077000000    -0.451000000
H     2.204000000     2.255000000    -0.937000000
O     5.966000000    -3.559000000    -2.707000000
H     6.298000000    -3.931000000    -1.890000000
H     5.014000000    -3.610000000    -2.625000000
O    -3.170000000    -3.402000000    -4.255000000
H    -2.747000000    -2.687000000    -3.779000000
H    -3.763000000    -3.797000000    -3.615000000
O     4.154000000    -2.485000000    -0.066000000
H     3.841000000    -1.585000000     0.023000000
H     5.073000000    -2.446000000     0.198000000
O    -1.102000000     0.020000000     5.540000000
H    -1.756000000    -0.608000000     5.231000000
H    -0.262000000    -0.391000000     5.337000000
O     3.815000000     1.501000000    -1.143000000
H     4.359000000     1.534000000    -0.356000000
H     4.440000000     1.523000000    -1.868000000
O    -0.471000000     6.885000000     1.179000000
H    -0.348000000     6.150000000     0.578000000
H     0.358000000     6.946000000     1.654000000
O     2.970000000     5.111000000    -0.978000000
H     2.109000000     4.830000000    -0.670000000
H     2.842000000     5.300000000    -1.908000000
O    -0.401000000     0.190000000    -5.052000000
H    -0.961000000    -0.482000000    -4.662000000
H    -1.008000000     0.773000000    -5.507000000
O    -1.033000000    -2.336000000     2.111000000
H    -1.471000000    -2.807000000     1.403000000
H    -0.342000000    -1.837000000     1.676000000
O    -2.355000000     5.999000000     3.344000000
H    -1.801000000     6.352000000     2.648000000
H    -1.751000000     5.825000000     4.066000000
O    -6.595000000     0.986000000    -0.164000000
H    -6.251000000     1.639000000     0.446000000
H    -6.474000000     0.150000000     0.287000000
O     4.864000000     5.056000000     3.652000000
H     5.617000000     4.495000000     3.470000000
H     4.398000000     4.611000000     4.360000000
O     4.804000000     2.994000000     1.368000000
H     4.533000000     2.323000000     1.994000000
H     4.064000000     3.600000000     1.332000000
O     0.387000000    -3.927000000     4.040000000
H    -0.176000000    -3.365000000     3.507000000
H     0.923000000    -3.317000000     4.547000000
O    -2.631000000    -2.162000000     4.379000000
H    -3.581000000    -2.210000000     4.275000000
H    -2.292000000    -2.140000000     3.484000000
O     1.394000000    -1.328000000     5.886000000
H     0.933000000    -1.534000000     6.699000000
H     1.613000000    -0.400000000     5.964000000
O    -0.069000000     4.832000000    -0.494000000
H     0.364000000     3.982000000    -0.577000000
H    -0.348000000     5.047000000    -1.384000000
O    -6.303000000    -3.226000000    -1.226000000
H    -6.062000000    -3.603000000    -0.380000000
H    -5.574000000    -2.647000000    -1.447000000
O    -2.226000000    -6.279000000    -2.418000000
H    -2.975000000    -6.392000000    -3.003000000
H    -2.561000000    -6.511000000    -1.552000000
O     3.040000000     1.177000000    -4.483000000
H     2.136000000     1.348000000    -4.750000000
H     3.230000000     1.855000000    -3.834000000
O     2.444000000    -2.056000000    -4.131000000
H     1.632000000    -2.239000000    -3.658000000
H     2.340000000    -1.158000000    -4.447000000
O    -2.527000000    -3.873000000     0.362000000
H    -3.217000000    -3.950000000     1.022000000
H    -2.449000000    -4.753000000    -0.006000000
O    -2.976000000     3.024000000     2.610000000
H    -2.540000000     2.970000000     3.461000000
H    -2.877000000     3.940000000     2.349000000
O     0.963000000    -5.463000000    -5.334000000
H     0.394000000    -4.700000000    -5.427000000
H     1.837000000    -5.138000000    -5.548000000
O    -5.507000000     2.142000000     1.897000000
H    -4.582000000     2.242000000     2.120000000
H    -5.837000000     3.039000000     1.837000000
O     1.480000000    -0.001000000    -6.958000000
H     1.200000000    -0.800000000    -7.404000000
H     0.911000000     0.056000000    -6.190000000
O     0.052000000    -2.419000000    -7.885000000
H    -0.762000000    -2.518000000    -8.379000000
H    -0.134000000    -2.817000000    -7.035000000
O     4.035000000    -1.406000000     2.718000000
H     4.082000000    -2.109000000     3.366000000
H     4.634000000    -1.680000000     2.023000000
O     2.858000000     4.890000000     5.789000000
H     2.030000000     4.499000000     5.511000000
H     2.656000000     5.818000000     5.911000000
O     2.390000000     4.327000000     1.971000000
H     2.944000000     4.414000000     2.747000000
H     1.668000000     3.767000000     2.254000000
O     4.332000000     1.403000000     3.469000000
H     4.331000000     0.452000000     3.365000000
H     3.779000000     1.562000000     4.234000000
O     0.843000000     3.741000000     4.564000000
H     0.591000000     4.640000000     4.350000000
H     0.012000000     3.288000000     4.711000000
O     2.740000000    -5.075000000    -0.099000000
H     3.249000000    -4.316000000     0.187000000
H     1.976000000    -4.699000000    -0.536000000
O    -2.507000000    -0.348000000    -7.288000000
H    -2.439000000    -0.288000000    -8.240000000
H    -1.868000000     0.286000000    -6.962000000
O    -3.860000000    -0.037000000    -4.199000000
H    -4.192000000    -0.719000000    -4.783000000
H    -3.400000000    -0.514000000    -3.509000000
O     3.853000000    -2.605000000     5.190000000
H     3.024000000    -2.138000000     5.298000000
H     4.046000000    -2.954000000     6.060000000
O    -0.664000000    -3.338000000    -5.308000000
H    -1.591000000    -3.500000000    -5.136000000
H    -0.324000000    -2.993000000    -4.482000000
O    -3.764000000    -1.973000000    -1.185000000
H    -3.446000000    -2.680000000    -0.623000000
H    -3.026000000    -1.775000000    -1.762000000
O     2.001000000     1.341000000     5.612000000
H     1.583000000     2.195000000     5.499000000
H     2.224000000     1.305000000     6.542000000
O     3.425000000    -4.227000000    -2.872000000
H     2.780000000    -4.395000000    -2.185000000
H     3.005000000    -3.585000000    -3.444000000
O    -3.455000000     3.369000000    -3.760000000
H    -4.121000000     2.683000000    -3.801000000
H    -3.815000000     4.018000000    -3.156000000
O    -5.649000000     1.817000000    -2.408000000
H    -4.883000000     1.341000000    -2.729000000
H    -5.897000000     1.360000000    -1.605000000
O     2.958000000    -3.964000000    -6.585000000
H     2.582000000    -4.098000000    -7.455000000
H     2.710000000    -3.069000000    -6.352000000
