161
-3041.27037
C    -1.346000000    -0.198000000     0.711000000
H    -2.188000000    -0.429000000     1.359000000
C    -0.279000000     0.562000000     1.131000000
H    -0.289000000     1.067000000     2.094000000
C     0.844000000     0.746000000     0.325000000
C     2.018000000     1.509000000     0.914000000
H     2.804000000     0.837000000     1.265000000
H     2.464000000     2.159000000     0.158000000
H     1.858000000     2.133000000     1.795000000
C     1.031000000     0.132000000    -0.888000000
H     1.993000000     0.265000000    -1.378000000
C    -0.023000000    -0.660000000    -1.382000000
H     0.022000000    -1.080000000    -2.384000000
C    -1.129000000    -0.848000000    -0.562000000
C    -2.272000000    -1.776000000    -0.974000000
O    -2.213000000    -2.533000000    -1.910000000
O    -3.295000000    -1.889000000    -0.272000000
O     2.016000000    -3.153000000     2.946000000
H     1.767000000    -4.077000000     2.934000000
H     1.800000000    -2.835000000     2.069000000
O    -3.228000000    -5.745000000     3.151000000
H    -2.990000000    -5.085000000     2.500000000
H    -4.103000000    -6.034000000     2.890000000
O    -0.178000000     5.367000000     2.784000000
H     0.595000000     5.291000000     3.344000000
H     0.157000000     5.718000000     1.960000000
O     2.255000000    -1.073000000    -4.629000000
H     2.368000000    -2.023000000    -4.591000000
H     1.540000000    -0.942000000    -5.252000000
O    -5.936000000    -1.028000000    -3.405000000
H    -5.895000000    -1.863000000    -2.938000000
H    -5.420000000    -0.428000000    -2.867000000
O     4.747000000     5.407000000     0.800000000
H     5.583000000     5.861000000     0.697000000
H     4.837000000     4.921000000     1.620000000
O     3.846000000    -2.071000000    -0.464000000
H     3.925000000    -2.961000000    -0.123000000
H     4.652000000    -1.636000000    -0.187000000
O    -8.246000000    -3.160000000    -2.632000000
H    -8.855000000    -3.610000000    -2.047000000
H    -7.491000000    -2.954000000    -2.080000000
O    -0.927000000     4.786000000    -2.846000000
H    -1.791000000     4.616000000    -3.219000000
H    -0.642000000     3.939000000    -2.504000000
O    -5.524000000    -4.282000000    -3.573000000
H    -6.048000000    -4.217000000    -4.372000000
H    -4.641000000    -4.032000000    -3.846000000
O     3.320000000     1.789000000    -4.507000000
H     2.949000000     0.914000000    -4.625000000
H     2.593000000     2.384000000    -4.688000000
O    -4.411000000    -2.180000000     4.376000000
H    -4.824000000    -2.382000000     3.537000000
H    -3.676000000    -1.610000000     4.151000000
O    -7.142000000    -1.741000000     2.958000000
H    -6.940000000    -1.035000000     3.572000000
H    -6.464000000    -1.674000000     2.285000000
O     1.337000000     6.890000000    -2.227000000
H     1.923000000     6.316000000    -1.734000000
H     0.525000000     6.390000000    -2.308000000
O    -5.486000000    -2.853000000    -1.354000000
H    -4.577000000    -2.600000000    -1.188000000
H    -5.425000000    -3.556000000    -2.000000000
O    -5.163000000    -2.643000000     1.311000000
H    -4.294000000    -2.324000000     1.067000000
H    -5.613000000    -2.773000000     0.476000000
O    -2.996000000    -4.098000000    -4.619000000
H    -2.320000000    -4.738000000    -4.396000000
H    -3.344000000    -4.401000000    -5.457000000
O     2.423000000     4.583000000     3.589000000
H     3.372000000     4.496000000     3.499000000
H     2.083000000     3.707000000     3.406000000
O    -3.393000000     0.388000000     4.243000000
H    -2.483000000     0.673000000     4.163000000
H    -3.906000000     1.185000000     4.108000000
O    -5.329000000     1.061000000     1.521000000
H    -4.672000000     1.749000000     1.629000000
H    -5.097000000     0.636000000     0.696000000
O    -1.049000000     2.571000000    -1.179000000
H    -0.357000000     1.990000000    -0.860000000
H    -1.619000000     2.702000000    -0.421000000
O    -1.067000000     2.905000000     3.898000000
H    -0.211000000     2.558000000     4.149000000
H    -0.870000000     3.728000000     3.450000000
O    -3.066000000     1.013000000    -2.806000000
H    -2.633000000     0.255000000    -3.199000000
H    -2.352000000     1.617000000    -2.600000000
O     1.285000000    -3.819000000    -4.918000000
H     0.727000000    -3.679000000    -4.153000000
H     1.632000000    -4.703000000    -4.803000000
O    -2.220000000    -3.951000000     1.462000000
H    -2.582000000    -4.237000000     0.623000000
H    -2.265000000    -2.995000000     1.429000000
O     2.279000000    -5.844000000    -2.000000000
H     2.523000000    -5.770000000    -2.923000000
H     2.537000000    -5.006000000    -1.616000000
O    -0.024000000    -3.974000000    -2.262000000
H    -0.830000000    -3.471000000    -2.143000000
H     0.210000000    -4.262000000    -1.380000000
O     5.440000000     2.839000000    -3.219000000
H     5.267000000     2.694000000    -2.289000000
H     4.681000000     2.461000000    -3.665000000
O     1.300000000     2.132000000     4.600000000
H     1.651000000     2.505000000     5.409000000
H     1.810000000     1.333000000     4.464000000
O    -1.202000000    -5.947000000    -4.056000000
H    -0.593000000    -5.302000000    -3.698000000
H    -0.760000000    -6.287000000    -4.835000000
O    -5.014000000     0.245000000    -1.156000000
H    -4.718000000    -0.522000000    -0.666000000
H    -4.236000000     0.541000000    -1.630000000
O     4.712000000    -1.247000000    -3.289000000
H     4.444000000    -1.080000000    -2.386000000
H     3.965000000    -0.966000000    -3.818000000
O     5.375000000     4.059000000     3.094000000
H     5.278000000     3.153000000     3.387000000
H     5.720000000     4.521000000     3.858000000
O     1.637000000     6.563000000     1.215000000
H     2.436000000     6.394000000     1.714000000
H     1.793000000     6.148000000     0.366000000
O     4.793000000     1.596000000     3.713000000
H     5.676000000     1.308000000     3.944000000
H     4.258000000     0.805000000     3.781000000
O     5.871000000    -1.246000000     1.395000000
H     6.385000000    -0.661000000     1.952000000
H     5.805000000    -2.058000000     1.898000000
O     5.330000000     2.608000000    -0.585000000
H     6.100000000     2.246000000    -0.146000000
H     4.782000000     2.939000000     0.126000000
O    -0.544000000     4.262000000     6.133000000
H    -0.811000000     3.760000000     5.363000000
H    -0.944000000     5.123000000     6.009000000
O    -3.255000000    -4.984000000    -0.862000000
H    -2.834000000    -4.406000000    -1.498000000
H    -3.218000000    -5.851000000    -1.266000000
O    -0.189000000    -0.974000000    -6.241000000
H    -0.887000000    -1.226000000    -5.637000000
H    -0.427000000    -0.093000000    -6.529000000
O     1.252000000    -3.031000000     0.254000000
H     2.097000000    -2.738000000    -0.088000000
H     0.651000000    -2.314000000     0.054000000
O    -2.350000000    -7.285000000    -2.039000000
H    -2.074000000    -6.791000000    -2.810000000
H    -2.026000000    -8.172000000    -2.194000000
O     3.038000000     5.049000000    -1.113000000
H     3.483000000     5.198000000    -0.278000000
H     3.732000000     4.759000000    -1.705000000
O    -5.880000000    -6.312000000    -0.101000000
H    -5.771000000    -6.455000000     0.839000000
H    -5.153000000    -5.739000000    -0.342000000
O    -2.125000000    -1.492000000    -4.490000000
H    -2.411000000    -2.266000000    -4.974000000
H    -2.062000000    -1.787000000    -3.582000000
O    -2.819000000     2.652000000     1.678000000
H    -2.254000000     2.494000000     2.434000000
H    -2.938000000     3.602000000     1.662000000
O    -5.183000000    -1.722000000    -6.059000000
H    -5.520000000    -1.544000000    -5.181000000
H    -5.954000000    -1.983000000    -6.563000000
O     2.708000000    -0.707000000     3.907000000
H     2.510000000    -1.546000000     3.492000000
H     3.163000000    -0.942000000     4.716000000
