161
-3030.79692
C    -1.280000000    -0.807000000    -0.061000000
H    -2.320000000    -1.073000000    -0.230000000
C    -1.124000000     0.582000000     0.196000000
H    -2.028000000     1.108000000     0.492000000
C     0.114000000     1.182000000     0.239000000
C     0.243000000     2.683000000     0.514000000
H     1.270000000     3.043000000     0.415000000
H    -0.248000000     3.382000000    -0.166000000
H    -0.034000000     2.870000000     1.554000000
C     1.254000000     0.393000000     0.063000000
H     2.206000000     0.892000000     0.228000000
C     1.119000000    -0.998000000    -0.193000000
H     2.033000000    -1.564000000    -0.358000000
C    -0.170000000    -1.574000000    -0.299000000
C    -0.330000000    -2.958000000    -0.733000000
O     0.699000000    -3.622000000    -1.115000000
O    -1.398000000    -3.532000000    -0.547000000
O     1.639000000     7.513000000    -2.759000000
H     1.779000000     6.855000000    -2.079000000
H     1.555000000     8.338000000    -2.280000000
O    -2.451000000    -5.864000000     3.085000000
H    -2.131000000    -4.963000000     3.139000000
H    -2.329000000    -6.108000000     2.168000000
O    -1.261000000     7.183000000     2.720000000
H    -2.074000000     7.570000000     2.395000000
H    -0.723000000     7.064000000     1.937000000
O     0.171000000    -6.371000000    -1.212000000
H     1.095000000    -6.605000000    -1.125000000
H     0.169000000    -5.414000000    -1.252000000
O     2.983000000    -7.072000000    -2.056000000
H     3.111000000    -6.458000000    -1.332000000
H     3.670000000    -7.727000000    -1.939000000
O     2.151000000     1.611000000    -2.490000000
H     3.069000000     1.498000000    -2.735000000
H     2.087000000     1.224000000    -1.617000000
O     0.995000000    -3.875000000     2.687000000
H     1.766000000    -3.318000000     2.583000000
H     1.202000000    -4.432000000     3.438000000
O     2.013000000    -5.526000000    -4.218000000
H     2.696000000    -5.892000000    -4.780000000
H     2.004000000    -6.096000000    -3.449000000
O    -3.238000000    -5.632000000    -2.978000000
H    -3.504000000    -5.745000000    -2.066000000
H    -2.831000000    -6.466000000    -3.213000000
O    -1.228000000     3.228000000    -2.490000000
H    -0.479000000     3.465000000    -3.037000000
H    -1.106000000     2.295000000    -2.310000000
O    -0.178000000     6.618000000     0.308000000
H    -0.792000000     5.888000000     0.222000000
H    -0.619000000     7.353000000    -0.119000000
O     4.962000000     1.238000000     0.126000000
H     4.481000000     2.043000000     0.315000000
H     4.814000000     1.083000000    -0.807000000
O     3.911000000    -2.802000000    -5.230000000
H     3.302000000    -2.618000000    -4.515000000
H     3.469000000    -3.469000000    -5.755000000
O    -5.112000000     0.842000000     2.331000000
H    -5.307000000     0.715000000     1.402000000
H    -5.422000000     1.728000000     2.522000000
O    -5.598000000     1.909000000    -2.781000000
H    -5.749000000     1.491000000    -1.933000000
H    -6.474000000     2.030000000    -3.148000000
O     6.223000000    -1.952000000    -2.789000000
H     6.380000000    -1.898000000    -3.732000000
H     5.659000000    -2.718000000    -2.684000000
O    -2.328000000     4.885000000     0.073000000
H    -3.031000000     5.405000000    -0.317000000
H    -2.256000000     4.116000000    -0.493000000
O    -3.037000000     4.714000000     2.744000000
H    -2.362000000     4.551000000     2.085000000
H    -3.183000000     5.659000000     2.708000000
O    -0.300000000     2.516000000     6.890000000
H    -0.824000000     2.880000000     6.177000000
H    -0.906000000     2.458000000     7.628000000
O    -3.547000000     0.763000000    -3.978000000
H    -4.310000000     1.147000000    -3.546000000
H    -2.809000000     1.292000000    -3.676000000
O     4.647000000     0.516000000    -2.730000000
H     5.266000000    -0.202000000    -2.600000000
H     4.741000000     0.748000000    -3.654000000
O     3.498000000    -2.957000000     2.510000000
H     3.456000000    -2.071000000     2.868000000
H     3.899000000    -2.848000000     1.647000000
O    -0.790000000    -1.034000000     4.018000000
H    -1.063000000    -1.534000000     3.249000000
H     0.058000000    -0.662000000     3.773000000
O    -5.616000000     3.475000000     2.412000000
H    -4.805000000     3.982000000     2.423000000
H    -5.806000000     3.305000000     3.335000000
O     1.303000000     0.474000000     3.088000000
H     0.608000000     0.880000000     2.571000000
H     2.111000000     0.861000000     2.751000000
O     1.720000000    -3.015000000    -3.385000000
H     1.426000000    -3.081000000    -2.477000000
H     1.708000000    -3.917000000    -3.707000000
O    -1.535000000     3.123000000     4.676000000
H    -1.674000000     3.902000000     4.137000000
H    -2.373000000     2.661000000     4.650000000
O     2.045000000     5.552000000    -0.747000000
H     2.434000000     4.958000000    -0.104000000
H     1.272000000     5.907000000    -0.309000000
O     4.935000000    -3.453000000     0.178000000
H     5.691000000    -3.630000000     0.738000000
H     5.302000000    -3.372000000    -0.702000000
O     3.499000000     4.140000000    -2.828000000
H     2.802000000     3.485000000    -2.850000000
H     3.331000000     4.642000000    -2.031000000
O     1.268000000    -0.302000000    -4.571000000
H     1.541000000     0.429000000    -4.016000000
H     1.327000000    -1.070000000    -4.003000000
O    -6.069000000    -0.003000000    -0.783000000
H    -7.015000000     0.024000000    -0.927000000
H    -5.816000000    -0.896000000    -1.020000000
O    -2.221000000    -5.892000000     0.339000000
H    -1.646000000    -6.495000000    -0.131000000
H    -1.996000000    -5.028000000    -0.005000000
O     0.668000000     5.991000000     4.241000000
H     0.067000000     6.444000000     3.649000000
H     0.142000000     5.802000000     5.018000000
O     2.932000000    -5.380000000     0.294000000
H     3.611000000    -4.709000000     0.222000000
H     2.150000000    -4.901000000     0.568000000
O     3.039000000     5.594000000     2.691000000
H     2.529000000     6.180000000     2.131000000
H     2.561000000     5.580000000     3.520000000
O     0.330000000    -7.457000000     2.584000000
H     0.086000000    -6.550000000     2.400000000
H     0.911000000    -7.700000000     1.863000000
O    -4.888000000    -4.959000000     0.879000000
H    -4.727000000    -4.257000000     0.248000000
H    -4.040000000    -5.391000000     0.977000000
O    -4.240000000    -1.195000000     3.824000000
H    -4.599000000    -0.592000000     3.174000000
H    -3.292000000    -1.123000000     3.720000000
O    -1.455000000    -3.283000000     2.163000000
H    -0.558000000    -3.580000000     2.315000000
H    -1.529000000    -3.221000000     1.211000000
O    -4.133000000    -3.201000000    -1.104000000
H    -3.179000000    -3.132000000    -1.086000000
H    -4.379000000    -2.896000000    -1.978000000
O     4.599000000    -0.101000000     2.367000000
H     5.427000000     0.107000000     2.798000000
H     4.727000000     0.169000000     1.457000000
O     2.051000000     2.776000000     5.620000000
H     1.145000000     2.782000000     5.927000000
H     2.047000000     3.347000000     4.851000000
O     7.471000000     1.811000000    -1.302000000
H     7.538000000     1.999000000    -2.238000000
H     6.571000000     2.045000000    -1.075000000
O    -1.207000000     6.174000000    -2.733000000
H    -1.606000000     6.262000000    -1.867000000
H    -1.404000000     5.276000000    -2.997000000
O     3.972000000     3.802000000     0.594000000
H     3.846000000     4.307000000     1.398000000
H     4.704000000     4.233000000     0.153000000
O    -3.943000000    -2.074000000    -3.593000000
H    -3.640000000    -1.173000000    -3.474000000
H    -3.155000000    -2.561000000    -3.835000000
O    -1.542000000    -3.572000000    -3.744000000
H    -2.090000000    -4.356000000    -3.723000000
H    -0.780000000    -3.798000000    -3.212000000
