161
-3026.42369
C    -1.359000000    -0.630000000     0.108000000
H    -2.318000000    -1.136000000     0.186000000
C    -0.943000000     0.429000000     0.868000000
H    -1.550000000     0.897000000     1.638000000
C     0.264000000     1.002000000     0.644000000
C     0.779000000     2.098000000     1.512000000
H     0.811000000     1.802000000     2.562000000
H     1.820000000     2.275000000     1.233000000
H     0.266000000     3.038000000     1.294000000
C     1.131000000     0.537000000    -0.346000000
H     2.134000000     0.902000000    -0.551000000
C     0.752000000    -0.598000000    -1.047000000
H     1.391000000    -0.988000000    -1.835000000
C    -0.483000000    -1.191000000    -0.825000000
C    -0.791000000    -2.481000000    -1.618000000
O    -0.002000000    -3.040000000    -2.230000000
O    -1.908000000    -2.915000000    -1.585000000
O    -1.131000000    -6.221000000     2.078000000
H    -1.248000000    -5.439000000     1.538000000
H    -1.920000000    -6.260000000     2.618000000
O     0.333000000     7.665000000     3.439000000
H     0.429000000     8.588000000     3.207000000
H     0.322000000     7.206000000     2.599000000
O     0.721000000    -5.582000000    -2.614000000
H     1.652000000    -5.524000000    -2.398000000
H     0.410000000    -4.677000000    -2.577000000
O     3.160000000     1.595000000    -2.879000000
H     3.189000000     0.714000000    -3.254000000
H     4.032000000     1.725000000    -2.506000000
O     1.035000000    -3.956000000     1.817000000
H     0.950000000    -4.793000000     1.361000000
H     1.592000000    -4.149000000     2.571000000
O    -1.325000000     2.041000000    -1.829000000
H    -1.116000000     1.257000000    -1.321000000
H    -0.801000000     1.957000000    -2.625000000
O     0.336000000     6.309000000     0.904000000
H    -0.281000000     5.658000000     0.569000000
H     0.401000000     6.959000000     0.205000000
O     6.194000000     0.520000000     0.942000000
H     5.696000000     0.152000000     0.212000000
H     5.612000000     1.178000000     1.322000000
O    -5.085000000    -1.599000000     1.737000000
H    -4.800000000    -2.043000000     0.938000000
H    -5.965000000    -1.282000000     1.534000000
O    -4.791000000    -0.306000000    -2.278000000
H    -5.375000000    -0.716000000    -1.640000000
H    -4.332000000    -1.039000000    -2.689000000
O    -4.363000000     3.585000000     5.620000000
H    -4.903000000     4.067000000     4.994000000
H    -3.673000000     3.191000000     5.088000000
O    -1.628000000     4.582000000    -0.121000000
H    -2.448000000     4.764000000    -0.580000000
H    -1.356000000     3.724000000    -0.448000000
O    -1.801000000     3.058000000     3.672000000
H    -2.348000000     3.587000000     3.091000000
H    -1.096000000     3.647000000     3.939000000
O    -1.427000000    -0.193000000    -4.497000000
H    -1.923000000     0.571000000    -4.791000000
H    -0.511000000     0.077000000    -4.562000000
O    -5.009000000    -6.497000000    -2.008000000
H    -4.352000000    -5.852000000    -2.271000000
H    -5.074000000    -7.091000000    -2.756000000
O     3.267000000    -1.087000000    -3.744000000
H     2.639000000    -1.768000000    -3.984000000
H     3.709000000    -0.869000000    -4.565000000
O     4.215000000    -2.744000000     1.007000000
H     3.427000000    -2.394000000     1.421000000
H     4.370000000    -2.166000000     0.259000000
O     0.570000000    -1.200000000     3.372000000
H     0.522000000    -1.451000000     2.450000000
H     1.508000000    -1.137000000     3.554000000
O    -4.292000000     0.824000000     2.862000000
H    -4.683000000    -0.046000000     2.787000000
H    -3.575000000     0.712000000     3.487000000
O     3.366000000    -1.123000000     4.096000000
H     4.137000000    -0.776000000     3.647000000
H     3.712000000    -1.801000000     4.677000000
O     1.369000000    -3.241000000    -4.802000000
H     1.147000000    -3.039000000    -3.893000000
H     0.699000000    -3.865000000    -5.079000000
O     0.405000000    -8.391000000    -3.010000000
H     0.417000000    -8.455000000    -3.965000000
H     0.301000000    -7.456000000    -2.834000000
O     2.494000000     4.721000000     1.759000000
H     1.687000000     5.173000000     1.514000000
H     2.916000000     5.308000000     2.386000000
O    -1.808000000     0.400000000     4.124000000
H    -1.779000000     1.319000000     3.856000000
H    -0.970000000     0.039000000     3.835000000
O     4.087000000     4.499000000    -0.459000000
H     4.923000000     4.506000000     0.005000000
H     3.440000000     4.731000000     0.208000000
O    -6.719000000     1.890000000     2.008000000
H    -7.062000000     1.140000000     1.522000000
H    -5.986000000     1.536000000     2.511000000
O     4.724000000    -1.271000000    -1.166000000
H     5.489000000    -1.667000000    -1.584000000
H     4.098000000    -1.149000000    -1.880000000
O     2.991000000     4.708000000    -2.954000000
H     2.815000000     3.767000000    -2.944000000
H     3.541000000     4.857000000    -2.186000000
O    -5.004000000    -3.598000000    -5.534000000
H    -4.215000000    -3.227000000    -5.140000000
H    -4.847000000    -4.542000000    -5.543000000
O    -6.354000000    -3.067000000    -2.494000000
H    -6.671000000    -2.570000000    -3.247000000
H    -7.083000000    -3.643000000    -2.262000000
O    -2.589000000    -5.267000000    -2.343000000
H    -1.964000000    -5.621000000    -2.975000000
H    -2.165000000    -4.480000000    -2.001000000
O     0.204000000     4.601000000     4.701000000
H     0.338000000     4.791000000     5.629000000
H     1.052000000     4.277000000     4.397000000
O     1.657000000     2.011000000     6.718000000
H     1.632000000     1.077000000     6.927000000
H     0.852000000     2.362000000     7.098000000
O     2.933000000    -5.199000000    -0.187000000
H     3.367000000    -4.457000000     0.234000000
H     3.592000000    -5.555000000    -0.783000000
O     4.315000000     2.441000000     1.918000000
H     3.939000000     2.073000000     2.717000000
H     3.675000000     3.092000000     1.630000000
O    -1.875000000    -2.883000000    -6.396000000
H    -1.801000000    -2.120000000    -5.823000000
H    -1.191000000    -3.480000000    -6.091000000
O     1.096000000     0.907000000    -4.532000000
H     1.502000000     1.161000000    -3.703000000
H     1.695000000     1.235000000    -5.203000000
O    -5.164000000    -5.959000000     0.731000000
H    -4.592000000    -5.200000000     0.844000000
H    -5.081000000    -6.185000000    -0.196000000
O    -3.727000000    -3.508000000     3.156000000
H    -4.373000000    -2.944000000     2.729000000
H    -3.059000000    -3.655000000     2.487000000
O    -1.843000000    -3.910000000     1.154000000
H    -1.297000000    -3.124000000     1.175000000
H    -1.930000000    -4.116000000     0.223000000
O    -4.401000000    -3.258000000    -0.480000000
H    -3.553000000    -3.223000000    -0.921000000
H    -5.041000000    -3.266000000    -1.191000000
O     3.093000000     1.840000000     4.519000000
H     2.669000000     1.990000000     5.364000000
H     2.651000000     1.069000000     4.163000000
O     5.770000000     1.924000000    -2.182000000
H     6.399000000     1.343000000    -1.753000000
H     6.259000000     2.731000000    -2.342000000
O    -1.659000000     4.609000000    -3.436000000
H    -2.477000000     4.667000000    -2.942000000
H    -0.977000000     4.559000000    -2.766000000
O     6.307000000     4.093000000     1.051000000
H     5.757000000     3.321000000     1.181000000
H     6.146000000     4.636000000     1.823000000
O    -3.148000000    -1.985000000    -3.680000000
H    -2.501000000    -1.306000000    -3.871000000
H    -2.759000000    -2.492000000    -2.967000000
O    -3.469000000     5.170000000     2.310000000
H    -4.310000000     5.024000000     1.876000000
H    -2.915000000     5.559000000     1.633000000
O    -0.172000000    -5.214000000    -5.826000000
H    -0.934000000    -5.719000000    -6.109000000
H     0.418000000    -5.864000000    -5.444000000
