161
-3031.68112
C    -1.223000000    -0.414000000     0.730000000
H    -2.123000000    -0.869000000     1.135000000
C    -0.428000000    -1.226000000    -0.053000000
H    -0.759000000    -2.251000000    -0.202000000
C     0.757000000    -0.758000000    -0.673000000
C     1.693000000    -1.676000000    -1.448000000
H     2.779000000    -1.572000000    -1.422000000
H     1.518000000    -2.735000000    -1.243000000
H     1.380000000    -1.558000000    -2.487000000
C     1.075000000     0.603000000    -0.537000000
H     1.942000000     0.989000000    -1.067000000
C     0.227000000     1.489000000     0.276000000
H     0.540000000     2.525000000     0.384000000
C    -0.963000000     0.972000000     0.929000000
C    -1.832000000     1.911000000     1.740000000
O    -1.743000000     3.117000000     1.634000000
O    -2.848000000     1.447000000     2.308000000
O    -3.833000000    -3.234000000     3.422000000
H    -2.975000000    -3.658000000     3.424000000
H    -4.414000000    -3.870000000     3.005000000
O     3.655000000    -5.301000000    -2.610000000
H     2.942000000    -5.000000000    -3.172000000
H     3.536000000    -6.249000000    -2.559000000
O    -1.322000000     5.147000000    -0.163000000
H    -2.223000000     5.068000000    -0.475000000
H    -1.311000000     4.666000000     0.664000000
O     6.075000000     0.048000000    -1.295000000
H     6.954000000    -0.323000000    -1.368000000
H     6.221000000     0.985000000    -1.164000000
O     0.629000000     1.164000000     5.742000000
H    -0.323000000     1.183000000     5.641000000
H     0.912000000     0.423000000     5.208000000
O    -0.559000000    -6.497000000    -2.686000000
H    -1.002000000    -7.315000000    -2.460000000
H    -0.150000000    -6.673000000    -3.533000000
O     5.026000000    -3.421000000    -1.439000000
H     4.629000000    -4.175000000    -1.875000000
H     5.777000000    -3.195000000    -1.987000000
O    -3.841000000     5.146000000    -2.037000000
H    -4.597000000     5.598000000    -1.662000000
H    -4.195000000     4.671000000    -2.789000000
O     1.633000000     5.003000000    -0.483000000
H     0.713000000     4.947000000    -0.740000000
H     1.684000000     5.796000000     0.051000000
O     2.119000000    -2.341000000     2.011000000
H     3.033000000    -2.428000000     1.740000000
H     1.869000000    -1.460000000     1.733000000
O    -7.071000000    -1.805000000    -0.735000000
H    -6.464000000    -1.442000000    -0.090000000
H    -6.681000000    -1.586000000    -1.581000000
O    -1.202000000     1.609000000    -2.500000000
H    -1.199000000     1.397000000    -1.567000000
H    -0.294000000     1.839000000    -2.697000000
O    -1.665000000    -2.618000000     6.089000000
H    -1.763000000    -1.958000000     5.403000000
H    -1.902000000    -2.161000000     6.896000000
O     4.592000000     4.075000000     0.574000000
H     4.597000000     4.650000000     1.339000000
H     4.291000000     4.634000000    -0.143000000
O     4.703000000    -1.377000000     1.089000000
H     4.494000000    -0.450000000     0.972000000
H     5.026000000    -1.659000000     0.233000000
O    -4.817000000     3.379000000     1.624000000
H    -5.108000000     2.479000000     1.479000000
H    -3.864000000     3.315000000     1.694000000
O     1.060000000     6.464000000     3.239000000
H     2.009000000     6.587000000     3.243000000
H     0.913000000     5.717000000     3.820000000
O     4.389000000     1.346000000     1.162000000
H     4.271000000     2.265000000     0.919000000
H     5.122000000     1.353000000     1.777000000
O    -7.749000000     1.166000000     2.049000000
H    -7.165000000     1.536000000     2.712000000
H    -7.778000000     0.231000000     2.250000000
O     2.976000000    -5.686000000    -0.002000000
H     3.181000000    -5.482000000    -0.914000000
H     2.054000000    -5.448000000     0.095000000
O     4.527000000     1.679000000    -5.887000000
H     4.652000000     0.976000000    -6.524000000
H     4.302000000     1.229000000    -5.073000000
O    -6.059000000     5.252000000    -0.098000000
H    -6.485000000     4.721000000    -0.771000000
H    -5.719000000     4.616000000     0.530000000
O    -6.408000000     5.149000000     3.247000000
H    -5.972000000     4.416000000     2.813000000
H    -6.744000000     5.686000000     2.529000000
O    -5.535000000    -1.238000000     1.580000000
H    -5.925000000    -1.309000000     2.451000000
H    -4.671000000    -1.640000000     1.672000000
O     6.921000000    -4.975000000    -0.097000000
H     6.321000000    -4.521000000    -0.689000000
H     7.239000000    -4.291000000     0.493000000
O     1.501000000    -4.672000000    -4.081000000
H     0.574000000    -4.606000000    -3.852000000
H     1.527000000    -4.519000000    -5.026000000
O    -1.977000000     1.165000000     4.826000000
H    -2.365000000     0.358000000     5.166000000
H    -2.324000000     1.241000000     3.937000000
O    -2.880000000    -2.252000000    -3.308000000
H    -2.487000000    -1.762000000    -2.586000000
H    -3.817000000    -2.066000000    -3.242000000
O     3.890000000    -2.145000000    -4.326000000
H     3.067000000    -2.495000000    -3.984000000
H     4.544000000    -2.805000000    -4.097000000
O     0.718000000    -4.601000000     2.265000000
H     1.117000000    -3.744000000     2.114000000
H     0.396000000    -4.869000000     1.404000000
O    -1.856000000     4.216000000     6.060000000
H    -1.840000000     4.210000000     5.103000000
H    -1.082000000     4.721000000     6.310000000
O    -3.958000000     1.476000000    -2.438000000
H    -3.029000000     1.406000000    -2.219000000
H    -4.386000000     1.680000000    -1.607000000
O    -1.958000000     5.253000000     3.022000000
H    -1.031000000     5.487000000     2.965000000
H    -2.042000000     4.473000000     2.474000000
O    -3.748000000    -0.968000000     5.051000000
H    -3.934000000    -1.601000000     4.358000000
H    -4.351000000    -1.200000000     5.757000000
O     2.974000000     3.891000000    -2.724000000
H     2.514000000     4.329000000    -2.008000000
H     3.716000000     3.458000000    -2.302000000
O     0.965000000     4.274000000     4.685000000
H     1.741000000     4.107000000     5.220000000
H     0.521000000     3.428000000     4.636000000
O     5.775000000     2.882000000    -3.072000000
H     5.318000000     2.045000000    -3.151000000
H     5.642000000     3.309000000    -3.919000000
O    -4.524000000     0.849000000     0.408000000
H    -5.055000000     0.217000000     0.892000000
H    -3.746000000     0.975000000     0.952000000
O     0.092000000    -5.217000000    -0.484000000
H    -0.632000000    -5.560000000     0.041000000
H    -0.169000000    -5.386000000    -1.389000000
O     1.673000000     1.489000000    -4.198000000
H     2.362000000     0.884000000    -3.923000000
H     1.969000000     2.346000000    -3.889000000
O    -1.567000000    -4.866000000     3.941000000
H    -0.867000000    -4.462000000     3.427000000
H    -1.424000000    -4.548000000     4.832000000
O     1.471000000    -1.346000000     4.593000000
H     1.526000000    -1.989000000     5.300000000
H     1.549000000    -1.864000000     3.791000000
O     4.192000000     0.322000000    -3.545000000
H     4.674000000     0.117000000    -2.743000000
H     4.073000000    -0.525000000    -3.976000000
O    -1.718000000    -6.020000000     1.221000000
H    -1.579000000    -6.967000000     1.204000000
H    -1.936000000    -5.826000000     2.132000000
O    -5.262000000     1.283000000     3.892000000
H    -5.001000000     0.668000000     4.577000000
H    -4.475000000     1.396000000     3.359000000
O    -1.015000000     7.781000000    -0.527000000
H    -1.045000000     6.825000000    -0.569000000
H    -1.913000000     8.057000000    -0.708000000
O    -6.579000000     2.509000000     5.930000000
H    -6.254000000     2.007000000     5.183000000
H    -5.848000000     3.077000000     6.173000000
O    -4.188000000     6.945000000     3.498000000
H    -3.263000000     6.719000000     3.398000000
H    -4.649000000     6.111000000     3.412000000
