161
-3039.88864
C    -1.049000000     0.659000000    -0.827000000
H    -1.670000000     1.157000000    -1.567000000
C     0.226000000     0.386000000    -1.187000000
H     0.600000000     0.424000000    -2.207000000
C     1.121000000    -0.194000000    -0.343000000
C     2.542000000    -0.404000000    -0.774000000
H     3.246000000    -0.066000000    -0.010000000
H     2.644000000    -1.461000000    -1.026000000
H     2.752000000     0.247000000    -1.625000000
C     0.803000000    -0.539000000     0.960000000
H     1.504000000    -1.078000000     1.593000000
C    -0.536000000    -0.314000000     1.302000000
H    -0.816000000    -0.730000000     2.266000000
C    -1.456000000     0.315000000     0.467000000
C    -2.898000000     0.479000000     0.895000000
O    -3.302000000     0.320000000     2.022000000
O    -3.709000000     0.805000000     0.064000000
O    -1.195000000    -3.487000000     0.302000000
H    -1.415000000    -3.680000000     1.214000000
H    -1.987000000    -3.710000000    -0.188000000
O     1.103000000     2.991000000    -6.369000000
H     0.512000000     2.328000000    -6.012000000
H     1.213000000     3.622000000    -5.658000000
O    -2.170000000     5.034000000     2.593000000
H    -2.038000000     4.377000000     1.909000000
H    -2.959000000     5.505000000     2.323000000
O     1.348000000    -4.105000000    -0.151000000
H     0.430000000    -3.897000000     0.022000000
H     1.686000000    -3.335000000    -0.607000000
O    -1.052000000     0.902000000    -5.460000000
H    -0.618000000     0.138000000    -5.081000000
H    -1.662000000     1.192000000    -4.782000000
O    -2.848000000     2.187000000    -3.746000000
H    -3.178000000     2.750000000    -4.446000000
H    -3.577000000     2.121000000    -3.128000000
O     2.249000000    -4.597000000     4.171000000
H     1.415000000    -5.046000000     4.309000000
H     2.412000000    -4.136000000     4.994000000
O     3.065000000    -5.168000000     1.730000000
H     2.660000000    -4.980000000     2.577000000
H     2.500000000    -4.733000000     1.092000000
O    -1.462000000    -2.183000000    -2.225000000
H    -1.348000000    -1.627000000    -1.455000000
H    -1.953000000    -2.940000000    -1.904000000
O     0.950000000     4.096000000    -1.124000000
H     1.732000000     3.546000000    -1.183000000
H     1.254000000     4.901000000    -0.706000000
O     6.140000000    -0.078000000     1.345000000
H     6.278000000    -0.901000000     1.813000000
H     5.215000000    -0.094000000     1.100000000
O     1.720000000    -3.994000000    -4.657000000
H     2.167000000    -3.345000000    -4.115000000
H     1.445000000    -3.509000000    -5.435000000
O    -3.020000000    -1.641000000     3.615000000
H    -2.893000000    -1.003000000     2.913000000
H    -3.629000000    -1.215000000     4.218000000
O    -2.230000000     1.373000000     4.440000000
H    -2.641000000     1.048000000     3.640000000
H    -1.484000000     0.791000000     4.581000000
O     1.352000000     4.572000000     1.846000000
H     0.511000000     4.253000000     1.518000000
H     1.819000000     3.781000000     2.114000000
O    -4.307000000    -1.450000000    -1.576000000
H    -4.372000000    -0.687000000    -1.001000000
H    -4.488000000    -2.196000000    -1.004000000
O     2.605000000     2.352000000     2.818000000
H     3.167000000     2.930000000     3.335000000
H     3.062000000     1.511000000     2.818000000
O    -1.819000000     5.957000000    -0.780000000
H    -2.630000000     5.557000000    -1.094000000
H    -1.519000000     6.495000000    -1.512000000
O     3.038000000     2.565000000    -1.733000000
H     3.449000000     2.774000000    -0.894000000
H     3.345000000     1.682000000    -1.937000000
O    -7.189000000     4.113000000    -0.734000000
H    -6.715000000     4.009000000    -1.559000000
H    -6.573000000     3.814000000    -0.064000000
O    -0.750000000    -2.583000000     6.265000000
H    -0.721000000    -2.188000000     5.393000000
H    -1.679000000    -2.757000000     6.418000000
O    -6.011000000    -2.766000000     4.486000000
H    -5.501000000    -2.024000000     4.810000000
H    -5.636000000    -2.956000000     3.626000000
O     7.728000000    -0.334000000    -1.072000000
H     7.030000000    -0.209000000    -0.429000000
H     8.415000000    -0.796000000    -0.592000000
O     2.744000000    -1.245000000    -4.582000000
H     3.318000000    -1.304000000    -5.346000000
H     3.263000000    -0.777000000    -3.929000000
O     0.785000000     4.222000000    -3.785000000
H     0.119000000     3.705000000    -3.332000000
H     1.488000000     4.323000000    -3.143000000
O    -5.902000000     4.655000000     4.178000000
H    -5.841000000     3.858000000     3.652000000
H    -5.402000000     4.458000000     4.970000000
O    -7.411000000    -0.074000000    -0.900000000
H    -8.097000000     0.334000000    -0.371000000
H    -7.299000000    -0.943000000    -0.516000000
O     0.846000000     1.512000000     4.837000000
H     0.610000000     2.419000000     5.033000000
H     1.180000000     1.539000000     3.941000000
O    -5.399000000     2.153000000     3.178000000
H    -4.599000000     1.873000000     2.733000000
H    -6.090000000     1.620000000     2.784000000
O     5.351000000     4.143000000    -2.840000000
H     4.564000000     3.600000000    -2.891000000
H     6.026000000     3.554000000    -2.504000000
O    -6.024000000     3.413000000    -3.627000000
H    -6.704000000     3.187000000    -4.262000000
H    -5.894000000     2.612000000    -3.119000000
O     4.328000000     3.109000000     0.409000000
H     3.922000000     3.025000000     1.272000000
H     5.240000000     3.334000000     0.595000000
O    -3.996000000    -1.052000000    -4.219000000
H    -4.371000000    -1.042000000    -3.338000000
H    -3.096000000    -0.750000000    -4.099000000
O     4.478000000     0.558000000    -3.212000000
H     4.606000000     1.463000000    -3.497000000
H     5.352000000     0.170000000    -3.245000000
O    -5.364000000     1.359000000    -1.989000000
H    -6.131000000     0.793000000    -1.901000000
H    -4.806000000     1.124000000    -1.248000000
O    -5.649000000    -1.004000000     1.522000000
H    -4.759000000    -0.684000000     1.665000000
H    -5.541000000    -1.936000000     1.332000000
O    -2.209000000     4.233000000     5.032000000
H    -1.964000000     4.630000000     4.196000000
H    -2.172000000     3.290000000     4.869000000
O    -4.619000000     5.572000000     1.773000000
H    -5.151000000     5.455000000     2.560000000
H    -4.646000000     4.721000000     1.336000000
O    -0.084000000    -1.349000000    -4.266000000
H     0.850000000    -1.372000000    -4.056000000
H    -0.509000000    -1.759000000    -3.513000000
O     2.721000000    -0.128000000     5.906000000
H     1.994000000     0.409000000     5.592000000
H     3.180000000     0.433000000     6.532000000
O     4.051000000    -2.356000000     2.035000000
H     4.956000000    -2.510000000     2.304000000
H     3.641000000    -3.220000000     2.069000000
O    -1.790000000    -4.272000000     2.753000000
H    -2.548000000    -3.819000000     3.123000000
H    -1.525000000    -4.890000000     3.435000000
O    -4.647000000     3.050000000     0.402000000
H    -3.997000000     3.570000000    -0.071000000
H    -4.321000000     2.151000000     0.347000000
O     3.987000000    -0.058000000     3.358000000
H     3.851000000    -0.898000000     2.919000000
H     3.666000000    -0.198000000     4.249000000
O    -0.983000000     3.110000000     0.647000000
H    -1.346000000     2.332000000     0.225000000
H    -0.440000000     3.518000000    -0.028000000
O     6.910000000    -0.056000000    -3.530000000
H     7.276000000    -0.232000000    -2.663000000
H     7.195000000    -0.796000000    -4.066000000
O    -5.050000000    -0.165000000     5.026000000
H    -5.655000000     0.090000000     5.723000000
H    -4.594000000     0.645000000     4.797000000
O    -7.827000000     0.492000000     2.277000000
H    -7.078000000    -0.016000000     1.965000000
H    -8.322000000     0.700000000     1.484000000
