161
-3050.04195
C     0.675000000     0.723000000    -1.084000000
H     1.187000000     1.346000000    -1.814000000
C     1.281000000    -0.001000000    -0.112000000
H     2.362000000    -0.064000000    -0.016000000
C     0.518000000    -0.683000000     0.861000000
C     1.213000000    -1.600000000     1.862000000
H     1.615000000    -2.471000000     1.340000000
H     2.013000000    -1.135000000     2.442000000
H     0.480000000    -1.950000000     2.593000000
C    -0.815000000    -0.472000000     0.914000000
H    -1.377000000    -1.024000000     1.663000000
C    -1.442000000     0.309000000    -0.085000000
H    -2.514000000     0.469000000    -0.008000000
C    -0.691000000     0.947000000    -1.063000000
C    -1.301000000     1.737000000    -2.149000000
O    -2.504000000     1.802000000    -2.193000000
O    -0.701000000     2.074000000    -3.153000000
O     0.723000000    -3.570000000    -1.316000000
H     0.356000000    -3.230000000    -2.132000000
H    -0.040000000    -3.762000000    -0.771000000
O     1.695000000     6.427000000    -5.254000000
H     0.865000000     5.995000000    -5.055000000
H     1.448000000     7.203000000    -5.757000000
O    -4.914000000     0.090000000    -4.288000000
H    -5.224000000    -0.717000000    -4.699000000
H    -4.254000000    -0.201000000    -3.658000000
O    -5.834000000     4.490000000    -3.757000000
H    -5.613000000     3.844000000    -3.085000000
H    -5.234000000     4.300000000    -4.478000000
O    -1.104000000     5.544000000     0.058000000
H    -0.457000000     4.912000000     0.369000000
H    -1.716000000     5.025000000    -0.463000000
O     7.367000000     0.396000000     0.779000000
H     7.492000000    -0.030000000     1.628000000
H     6.640000000    -0.080000000     0.377000000
O     0.670000000     0.407000000     7.291000000
H     1.237000000     0.504000000     6.526000000
H     1.206000000    -0.068000000     7.927000000
O    -1.052000000    -1.465000000    -4.481000000
H    -0.862000000    -1.239000000    -3.571000000
H    -0.600000000    -0.795000000    -4.994000000
O    -2.212000000    -3.069000000    -1.519000000
H    -2.283000000    -3.118000000    -0.566000000
H    -2.761000000    -2.324000000    -1.762000000
O    -3.358000000    -2.418000000     4.140000000
H    -2.567000000    -1.892000000     4.026000000
H    -3.900000000    -1.909000000     4.744000000
O    -5.377000000     3.906000000     0.445000000
H    -5.523000000     4.837000000     0.613000000
H    -5.374000000     3.504000000     1.313000000
O    -0.017000000     4.640000000    -3.389000000
H     0.305000000     4.820000000    -2.506000000
H    -0.036000000     3.684000000    -3.447000000
O     2.275000000    -1.354000000    -6.379000000
H     2.042000000    -0.697000000    -5.722000000
H     1.902000000    -2.169000000    -6.045000000
O    -1.497000000    -0.671000000     4.744000000
H    -0.637000000    -0.461000000     4.380000000
H    -1.888000000     0.180000000     4.941000000
O     1.371000000     4.236000000    -0.894000000
H     1.097000000     3.422000000    -0.471000000
H     2.092000000     3.978000000    -1.468000000
O     5.120000000    -3.088000000    -2.037000000
H     4.543000000    -3.245000000    -2.785000000
H     4.591000000    -3.319000000    -1.274000000
O    -4.609000000    -1.466000000     0.178000000
H    -5.319000000    -0.995000000     0.614000000
H    -4.375000000    -2.164000000     0.790000000
O    -2.690000000     4.507000000    -1.718000000
H    -2.502000000     4.560000000    -2.655000000
H    -2.866000000     3.579000000    -1.561000000
O     4.915000000    -1.013000000    -0.002000000
H     4.829000000    -0.377000000    -0.712000000
H     4.173000000    -1.606000000    -0.121000000
O    -0.039000000     3.048000000     1.164000000
H    -0.030000000     2.092000000     1.138000000
H    -0.477000000     3.261000000     1.989000000
O    -2.461000000     1.358000000    -5.445000000
H    -1.931000000     1.622000000    -4.694000000
H    -3.139000000     0.794000000    -5.074000000
O     0.901000000     0.423000000    -4.511000000
H     0.731000000     0.936000000    -5.301000000
H     0.763000000     1.038000000    -3.792000000
O    -7.507000000     0.325000000     0.790000000
H    -8.281000000     0.818000000     0.517000000
H    -7.010000000     0.194000000    -0.017000000
O    -5.061000000     2.639000000    -2.031000000
H    -5.157000000     3.083000000    -1.189000000
H    -4.167000000     2.297000000    -2.021000000
O    -5.274000000    -3.878000000    -1.312000000
H    -5.543000000    -3.964000000    -2.227000000
H    -4.810000000    -3.042000000    -1.277000000
O    -3.398000000    -0.674000000    -2.351000000
H    -3.931000000    -0.694000000    -1.556000000
H    -2.888000000     0.132000000    -2.276000000
O    -4.403000000     6.658000000    -1.051000000
H    -3.922000000     5.843000000    -1.190000000
H    -5.198000000     6.560000000    -1.575000000
O     2.971000000     1.543000000     4.957000000
H     3.092000000     2.487000000     5.059000000
H     3.231000000     1.364000000     4.053000000
O     4.651000000     0.575000000    -2.032000000
H     5.323000000     1.242000000    -1.897000000
H     4.947000000     0.088000000    -2.801000000
O     0.143000000    -2.944000000     5.391000000
H    -0.559000000    -2.321000000     5.201000000
H     0.166000000    -2.994000000     6.347000000
O    -3.982000000     3.633000000    -5.990000000
H    -3.476000000     3.469000000    -6.785000000
H    -3.909000000     2.822000000    -5.488000000
O     1.210000000     2.881000000    -7.031000000
H     0.618000000     3.540000000    -7.395000000
H     0.744000000     2.053000000    -7.143000000
O     3.469000000    -5.418000000     3.855000000
H     2.520000000    -5.294000000     3.837000000
H     3.796000000    -4.865000000     3.145000000
O    -0.931000000    -5.272000000     1.444000000
H    -0.006000000    -5.371000000     1.219000000
H    -1.351000000    -6.052000000     1.080000000
O     5.008000000    -1.340000000     3.681000000
H     4.735000000    -0.498000000     3.315000000
H     5.206000000    -1.149000000     4.598000000
O     4.865000000    -0.196000000     6.164000000
H     4.210000000     0.426000000     5.847000000
H     4.433000000    -0.651000000     6.887000000
O     3.265000000    -3.617000000    -0.227000000
H     2.900000000    -4.486000000    -0.060000000
H     2.515000000    -3.091000000    -0.504000000
O    -3.185000000    -3.434000000     1.561000000
H    -2.292000000    -3.778000000     1.588000000
H    -3.287000000    -2.969000000     2.392000000
O     1.685000000    -5.845000000     0.981000000
H     1.937000000    -6.472000000     1.659000000
H     1.424000000    -6.389000000     0.238000000
O    -6.126000000     0.171000000    -1.580000000
H    -5.532000000     0.876000000    -1.839000000
H    -6.841000000     0.215000000    -2.216000000
O     4.266000000     0.972000000     2.507000000
H     3.701000000     1.719000000     2.312000000
H     4.345000000     0.508000000     1.673000000
O     2.692000000     3.042000000     2.207000000
H     2.027000000     3.191000000     1.535000000
H     2.581000000     3.770000000     2.818000000
O    -2.613000000     5.644000000    -4.629000000
H    -1.693000000     5.447000000    -4.456000000
H    -2.884000000     4.986000000    -5.268000000
O    -0.716000000     0.973000000    -7.362000000
H    -0.976000000     0.144000000    -7.763000000
H    -1.383000000     1.137000000    -6.696000000
O     0.288000000     1.390000000     4.173000000
H     1.121000000     1.433000000     4.643000000
H    -0.061000000     2.280000000     4.223000000
O     0.573000000    -5.088000000     3.901000000
H     0.299000000    -4.310000000     4.387000000
H     0.012000000    -5.096000000     3.125000000
O     4.433000000    -3.548000000     2.234000000
H     4.567000000    -2.763000000     2.766000000
H     3.950000000    -3.239000000     1.468000000
O     3.401000000     2.844000000    -2.533000000
H     3.694000000     1.971000000    -2.271000000
H     3.755000000     2.960000000    -3.415000000
