161
-3031.37376
C    -0.206000000     0.808000000    -1.219000000
H    -0.235000000     1.230000000    -2.220000000
C     0.818000000    -0.191000000    -1.020000000
H     1.419000000    -0.509000000    -1.868000000
C     0.897000000    -0.867000000     0.218000000
C     1.818000000    -2.101000000     0.346000000
H     1.343000000    -3.023000000     0.689000000
H     2.255000000    -2.402000000    -0.608000000
H     2.669000000    -1.827000000     0.973000000
C     0.097000000    -0.384000000     1.296000000
H     0.215000000    -0.898000000     2.247000000
C    -0.893000000     0.652000000     1.122000000
H    -1.623000000     0.923000000     1.880000000
C    -1.078000000     1.211000000    -0.175000000
C    -2.208000000     2.203000000    -0.476000000
O    -2.934000000     2.555000000     0.436000000
O    -2.350000000     2.613000000    -1.622000000
O    -1.074000000    -3.844000000     0.966000000
H    -1.101000000    -2.887000000     0.968000000
H    -1.924000000    -4.107000000     0.614000000
O     4.468000000    -4.835000000    -1.709000000
H     4.424000000    -5.649000000    -2.211000000
H     3.863000000    -4.970000000    -0.980000000
O    -1.948000000     3.063000000    -6.725000000
H    -1.720000000     3.889000000    -6.299000000
H    -1.356000000     2.420000000    -6.335000000
O     0.745000000    -6.995000000     3.925000000
H     0.618000000    -6.435000000     3.160000000
H     1.391000000    -7.643000000     3.643000000
O    -4.701000000     1.672000000    -2.677000000
H    -4.055000000     2.101000000    -2.116000000
H    -4.180000000     1.158000000    -3.294000000
O    -2.062000000    -2.388000000     3.497000000
H    -1.298000000    -2.860000000     3.827000000
H    -2.511000000    -3.020000000     2.936000000
O    -3.227000000     5.428000000    -2.972000000
H    -3.027000000     4.513000000    -2.775000000
H    -2.847000000     5.919000000    -2.244000000
O    -0.813000000    -1.837000000    -5.127000000
H    -0.599000000    -0.939000000    -4.875000000
H    -0.793000000    -2.328000000    -4.306000000
O     4.948000000    -2.299000000     2.850000000
H     5.558000000    -2.251000000     2.113000000
H     5.373000000    -1.798000000     3.546000000
O    -4.227000000    -0.977000000     4.480000000
H    -3.376000000    -1.250000000     4.138000000
H    -4.604000000    -1.777000000     4.849000000
O    -3.398000000     2.612000000     3.319000000
H    -3.370000000     2.637000000     2.362000000
H    -2.631000000     2.096000000     3.568000000
O     5.314000000    -1.711000000    -2.427000000
H     4.910000000    -2.579000000    -2.402000000
H     6.043000000    -1.769000000    -1.808000000
O    -1.642000000    -2.088000000    -2.306000000
H    -1.098000000    -1.343000000    -2.050000000
H    -2.500000000    -1.900000000    -1.926000000
O     4.074000000     1.245000000     2.668000000
H     3.275000000     1.628000000     2.306000000
H     4.231000000     1.737000000     3.474000000
O    -6.511000000     5.426000000    -2.180000000
H    -6.738000000     4.782000000    -2.851000000
H    -6.000000000     4.934000000    -1.539000000
O     0.365000000    -6.314000000     1.294000000
H    -0.316000000    -5.717000000     0.984000000
H    -0.100000000    -7.128000000     1.488000000
O    -0.397000000     3.174000000    -3.996000000
H    -0.927000000     3.018000000    -3.214000000
H    -0.094000000     4.077000000    -3.903000000
O    -4.582000000    -2.639000000     0.330000000
H    -4.566000000    -1.873000000     0.905000000
H    -4.536000000    -2.275000000    -0.555000000
O     0.589000000     4.054000000    -0.259000000
H     0.376000000     3.144000000    -0.468000000
H    -0.108000000     4.332000000     0.335000000
O     6.675000000     0.800000000     1.221000000
H     6.900000000    -0.095000000     1.477000000
H     5.846000000     0.975000000     1.666000000
O     3.982000000    -3.551000000    -4.082000000
H     3.347000000    -4.010000000    -4.631000000
H     4.172000000    -4.164000000    -3.372000000
O    -1.385000000     0.207000000     4.354000000
H    -0.518000000     0.493000000     4.065000000
H    -1.421000000    -0.721000000     4.120000000
O     0.025000000    -4.793000000    -2.500000000
H    -0.272000000    -4.031000000    -2.001000000
H    -0.145000000    -5.538000000    -1.924000000
O    -7.145000000     0.907000000    -1.943000000
H    -6.266000000     1.283000000    -1.988000000
H    -7.728000000     1.633000000    -2.166000000
O     6.135000000    -0.088000000     4.034000000
H     5.427000000     0.337000000     3.550000000
H     6.007000000     0.193000000     4.940000000
O     1.579000000    -4.863000000    -5.038000000
H     1.232000000    -4.827000000    -4.147000000
H     1.063000000    -5.545000000    -5.469000000
O     3.461000000     0.346000000    -3.471000000
H     4.181000000     0.971000000    -3.387000000
H     3.892000000    -0.500000000    -3.593000000
O    -0.039000000     0.857000000    -5.586000000
H    -0.131000000     1.660000000    -5.074000000
H     0.885000000     0.837000000    -5.836000000
O    -5.651000000     4.046000000     3.845000000
H    -5.849000000     3.438000000     4.557000000
H    -4.881000000     3.672000000     3.417000000
O     6.981000000    -3.575000000    -1.184000000
H     7.477000000    -3.754000000    -1.983000000
H     6.164000000    -4.061000000    -1.296000000
O    -6.701000000     3.048000000    -4.062000000
H    -5.952000000     2.701000000    -3.578000000
H    -6.489000000     2.887000000    -4.981000000
O    -2.960000000     0.481000000    -4.533000000
H    -2.067000000     0.542000000    -4.872000000
H    -3.236000000    -0.411000000    -4.743000000
O    -2.316000000     0.487000000     7.133000000
H    -2.121000000     1.410000000     7.295000000
H    -2.171000000     0.373000000     6.194000000
O    -5.323000000     4.104000000    -0.088000000
H    -5.049000000     4.945000000     0.278000000
H    -4.520000000     3.585000000    -0.123000000
O     0.987000000     1.425000000     3.562000000
H     1.013000000     1.949000000     2.761000000
H     1.231000000     0.544000000     3.278000000
O    -4.058000000    -0.492000000     1.748000000
H    -3.969000000     0.400000000     1.412000000
H    -4.226000000    -0.379000000     2.684000000
O     2.293000000    -1.291000000     3.724000000
H     3.140000000    -1.654000000     3.466000000
H     1.713000000    -2.051000000     3.778000000
O     2.641000000     2.311000000    -5.233000000
H     2.904000000     1.666000000    -4.576000000
H     2.820000000     3.157000000    -4.822000000
O    -4.722000000     6.391000000     0.942000000
H    -4.359000000     6.569000000     1.809000000
H    -4.023000000     6.636000000     0.335000000
O     2.700000000     0.172000000     6.228000000
H     3.536000000     0.228000000     6.691000000
H     2.897000000    -0.334000000     5.440000000
O     3.855000000    -4.699000000     2.738000000
H     4.259000000    -3.844000000     2.591000000
H     3.985000000    -4.867000000     3.671000000
O    -1.734000000     5.475000000     0.968000000
H    -1.481000000     5.798000000     1.833000000
H    -2.241000000     4.684000000     1.147000000
O     0.617000000    -3.457000000     3.595000000
H     0.437000000    -3.941000000     2.788000000
H     1.137000000    -4.061000000     4.125000000
O     2.543000000     3.694000000     1.893000000
H     2.135000000     3.946000000     1.065000000
H     3.132000000     4.419000000     2.100000000
O     3.705000000     1.417000000    -0.889000000
H     3.216000000     0.989000000    -0.187000000
H     3.488000000     0.914000000    -1.674000000
O    -2.786000000     7.091000000    -0.730000000
H    -2.244000000     6.478000000    -0.233000000
H    -2.197000000     7.815000000    -0.941000000
O    -0.176000000     3.568000000     5.277000000
H     0.474000000     4.227000000     5.520000000
H     0.341000000     2.818000000     4.984000000
O     2.855000000    -5.366000000     0.339000000
H     3.220000000    -4.994000000     1.142000000
H     2.009000000    -5.726000000     0.604000000
