161
-3063.65436
C    -0.352000000     0.481000000    -1.319000000
H    -0.562000000     0.773000000    -2.344000000
C     0.536000000    -0.551000000    -1.109000000
H     1.076000000    -1.090000000    -1.883000000
C     0.857000000    -0.789000000     0.234000000
C     1.854000000    -1.866000000     0.571000000
H     2.407000000    -2.231000000    -0.297000000
H     2.533000000    -1.490000000     1.339000000
H     1.339000000    -2.713000000     1.029000000
C     0.275000000    -0.084000000     1.307000000
H     0.567000000    -0.320000000     2.328000000
C    -0.720000000     0.815000000     1.028000000
H    -1.368000000     1.281000000     1.766000000
C    -1.060000000     1.067000000    -0.265000000
C    -2.141000000     2.021000000    -0.705000000
O    -2.685000000     2.660000000     0.173000000
O    -2.562000000     2.029000000    -1.850000000
O    -4.993000000     1.832000000    -3.002000000
H    -4.300000000     2.396000000    -2.657000000
H    -4.553000000     1.005000000    -3.198000000
O     4.805000000    -2.718000000     4.319000000
H     4.790000000    -1.975000000     3.715000000
H     4.291000000    -2.426000000     5.071000000
O    -0.361000000     2.246000000    -5.248000000
H    -0.280000000     2.498000000    -6.168000000
H     0.192000000     1.469000000    -5.163000000
O    -2.997000000    -1.144000000     2.867000000
H    -2.456000000    -0.694000000     3.515000000
H    -2.751000000    -2.065000000     2.947000000
O    -1.791000000    -6.240000000     1.458000000
H    -1.367000000    -6.057000000     0.620000000
H    -1.071000000    -6.463000000     2.048000000
O     0.386000000    -6.377000000     2.867000000
H     0.962000000    -6.114000000     2.150000000
H     0.440000000    -5.656000000     3.495000000
O     4.900000000     0.315000000     3.536000000
H     4.291000000     1.053000000     3.553000000
H     5.125000000     0.211000000     2.611000000
O    -1.893000000    -3.693000000     3.177000000
H    -2.045000000    -4.394000000     2.543000000
H    -1.001000000    -3.842000000     3.490000000
O    -3.028000000     7.020000000     0.020000000
H    -3.329000000     6.806000000     0.902000000
H    -2.825000000     7.955000000     0.056000000
O     7.410000000    -1.165000000    -0.654000000
H     8.055000000    -1.455000000    -1.299000000
H     6.722000000    -1.829000000    -0.686000000
O     0.292000000    -5.288000000    -3.623000000
H     1.033000000    -4.743000000    -3.358000000
H    -0.412000000    -5.043000000    -3.024000000
O    -3.692000000    -0.588000000    -1.805000000
H    -3.455000000     0.324000000    -1.979000000
H    -4.291000000    -0.542000000    -1.060000000
O     0.498000000    -3.847000000     4.300000000
H     0.470000000    -3.988000000     5.246000000
H     1.424000000    -3.936000000     4.072000000
O    -5.038000000     6.629000000    -2.361000000
H    -4.302000000     6.559000000    -2.969000000
H    -4.713000000     6.243000000    -1.547000000
O     5.677000000    -1.768000000    -3.488000000
H     5.614000000    -1.953000000    -2.551000000
H     5.924000000    -2.605000000    -3.881000000
O     5.403000000    -3.305000000    -1.171000000
H     4.803000000    -3.657000000    -0.515000000
H     5.749000000    -4.077000000    -1.619000000
O    -1.914000000    -4.578000000    -2.351000000
H    -1.881000000    -3.946000000    -1.632000000
H    -2.845000000    -4.768000000    -2.461000000
O     2.275000000    -3.753000000    -2.653000000
H     2.318000000    -2.820000000    -2.866000000
H     3.167000000    -3.980000000    -2.391000000
O    -5.406000000     2.728000000     0.319000000
H    -5.448000000     1.810000000     0.589000000
H    -4.470000000     2.921000000     0.272000000
O    -0.954000000    -1.459000000    -4.238000000
H    -1.234000000    -2.297000000    -4.607000000
H    -1.589000000    -1.278000000    -3.546000000
O    -4.602000000    -0.367000000     0.830000000
H    -4.045000000    -0.559000000     1.585000000
H    -5.407000000    -0.857000000     0.997000000
O    -2.601000000     6.138000000    -4.198000000
H    -2.928000000     6.122000000    -5.097000000
H    -2.335000000     5.235000000    -4.024000000
O    -7.663000000     1.562000000    -2.462000000
H    -6.742000000     1.733000000    -2.658000000
H    -7.858000000     2.127000000    -1.714000000
O     2.532000000    -6.990000000     0.161000000
H     2.880000000    -7.454000000    -0.600000000
H     2.474000000    -7.658000000     0.844000000
O     3.015000000    -4.987000000     3.204000000
H     3.631000000    -4.416000000     3.664000000
H     3.438000000    -5.846000000     3.206000000
O     5.708000000     0.517000000     0.941000000
H     6.098000000     0.014000000     0.227000000
H     5.366000000     1.306000000     0.520000000
O     3.779000000    -4.657000000     0.475000000
H     3.476000000    -4.482000000     1.366000000
H     3.523000000    -5.564000000     0.309000000
O    -4.151000000     6.390000000     2.482000000
H    -4.521000000     5.524000000     2.653000000
H    -4.636000000     6.977000000     3.062000000
O    -7.786000000     3.623000000    -0.567000000
H    -8.047000000     3.757000000     0.344000000
H    -6.863000000     3.374000000    -0.518000000
O    -2.813000000     3.619000000     5.030000000
H    -2.566000000     3.683000000     4.107000000
H    -2.107000000     3.113000000     5.432000000
O     2.954000000    -1.011000000    -3.437000000
H     2.871000000    -0.078000000    -3.242000000
H     3.892000000    -1.147000000    -3.565000000
O     2.994000000     2.269000000     2.956000000
H     3.445000000     3.104000000     3.084000000
H     2.927000000     2.177000000     2.006000000
O     0.973000000    -0.065000000    -5.698000000
H     1.550000000    -0.125000000    -4.937000000
H     0.314000000    -0.745000000    -5.554000000
O     1.340000000     4.858000000     1.519000000
H     1.568000000     3.958000000     1.285000000
H     0.636000000     5.093000000     0.914000000
O    -2.914000000     1.109000000    -5.910000000
H    -2.340000000     1.197000000    -5.150000000
H    -3.390000000     1.939000000    -5.948000000
O    -2.154000000     3.895000000     2.413000000
H    -2.133000000     4.813000000     2.143000000
H    -2.430000000     3.421000000     1.629000000
O     1.712000000     0.883000000     4.836000000
H     2.200000000     1.404000000     4.198000000
H     1.990000000    -0.018000000     4.671000000
O     2.865000000     3.278000000    -3.978000000
H     1.937000000     3.507000000    -4.023000000
H     3.055000000     2.878000000    -4.827000000
O    -1.215000000    -0.303000000     4.836000000
H    -1.089000000    -0.726000000     5.686000000
H    -0.350000000     0.035000000     4.606000000
O    -2.419000000    -2.669000000     0.027000000
H    -1.862000000    -2.472000000     0.779000000
H    -2.615000000    -1.815000000    -0.357000000
O    -0.046000000    -6.635000000    -0.701000000
H    -0.130000000    -6.119000000    -1.503000000
H     0.897000000    -6.744000000    -0.583000000
O    -2.117000000     3.511000000    -3.938000000
H    -2.265000000     2.975000000    -3.159000000
H    -1.253000000     3.244000000    -4.252000000
O    -5.029000000    -2.697000000    -3.253000000
H    -4.995000000    -3.519000000    -2.764000000
H    -4.409000000    -2.124000000    -2.802000000
O     0.677000000     4.323000000     4.810000000
H     0.866000000     4.010000000     3.926000000
H     0.240000000     3.585000000     5.237000000
O     4.458000000     1.362000000    -2.327000000
H     4.037000000     2.158000000    -2.651000000
H     5.333000000     1.646000000    -2.061000000
O     2.716000000     1.975000000     0.177000000
H     1.963000000     1.391000000     0.265000000
H     3.150000000     1.686000000    -0.626000000
O    -6.059000000     4.025000000     2.735000000
H    -6.920000000     3.630000000     2.872000000
H    -5.613000000     3.425000000     2.137000000
O    -1.057000000     5.270000000     0.114000000
H    -1.476000000     4.582000000    -0.403000000
H    -1.653000000     6.016000000     0.048000000
