161
-3031.75736
C    -1.106000000     0.487000000    -0.862000000
H    -1.875000000     0.665000000    -1.610000000
C    -0.036000000    -0.327000000    -1.311000000
H    -0.060000000    -0.849000000    -2.264000000
C     0.947000000    -0.677000000    -0.412000000
C     2.077000000    -1.582000000    -0.762000000
H     2.093000000    -2.503000000    -0.176000000
H     1.788000000    -1.921000000    -1.759000000
H     3.056000000    -1.132000000    -0.941000000
C     0.911000000    -0.250000000     0.917000000
H     1.662000000    -0.468000000     1.672000000
C    -0.195000000     0.546000000     1.339000000
H    -0.315000000     0.680000000     2.411000000
C    -1.206000000     0.972000000     0.464000000
C    -2.236000000     1.944000000     0.911000000
O    -2.225000000     2.241000000     2.094000000
O    -3.272000000     2.176000000     0.282000000
O     4.555000000     0.983000000     3.257000000
H     4.826000000     0.828000000     2.352000000
H     5.240000000     1.544000000     3.620000000
O    -0.930000000    -1.806000000     4.377000000
H    -1.782000000    -1.761000000     4.812000000
H    -0.573000000    -0.922000000     4.458000000
O     4.799000000    -0.759000000    -4.138000000
H     4.713000000    -0.947000000    -5.073000000
H     4.284000000     0.037000000    -4.006000000
O    -1.267000000     0.745000000    -6.770000000
H    -1.334000000    -0.057000000    -6.251000000
H    -0.835000000     1.370000000    -6.188000000
O    -4.333000000    -2.312000000     1.222000000
H    -4.186000000    -1.425000000     1.551000000
H    -5.094000000    -2.231000000     0.647000000
O    -0.324000000    -3.636000000     2.694000000
H    -0.470000000    -2.803000000     3.142000000
H    -0.796000000    -3.549000000     1.866000000
O     5.941000000    -2.551000000     0.690000000
H     6.882000000    -2.400000000     0.776000000
H     5.555000000    -1.676000000     0.707000000
O     0.121000000     0.105000000     5.950000000
H    -0.213000000     0.966000000     5.699000000
H     0.291000000     0.179000000     6.890000000
O     0.047000000    -4.989000000    -0.152000000
H     0.914000000    -4.829000000     0.219000000
H    -0.404000000    -4.147000000    -0.079000000
O     5.045000000    -4.421000000    -0.896000000
H     5.020000000    -4.079000000    -1.789000000
H     5.638000000    -3.831000000    -0.430000000
O    -1.035000000     5.375000000     4.824000000
H    -1.895000000     5.431000000     5.240000000
H    -1.034000000     6.083000000     4.179000000
O    -1.895000000    -1.714000000    -5.460000000
H    -2.542000000    -1.757000000    -4.755000000
H    -1.166000000    -2.249000000    -5.149000000
O     5.452000000    -3.588000000    -3.459000000
H     4.937000000    -4.008000000    -4.148000000
H     5.365000000    -2.651000000    -3.632000000
O    -4.955000000     1.245000000    -2.042000000
H    -4.647000000     1.732000000    -1.278000000
H    -5.024000000     1.903000000    -2.734000000
O    -1.841000000    -2.902000000     0.646000000
H    -2.757000000    -2.736000000     0.870000000
H    -1.518000000    -2.062000000     0.320000000
O    -7.086000000     4.966000000     0.677000000
H    -6.442000000     4.616000000     1.293000000
H    -7.482000000     5.705000000     1.139000000
O     2.686000000    -4.694000000     0.696000000
H     3.394000000    -4.346000000     0.154000000
H     3.113000000    -5.334000000     1.266000000
O     6.695000000    -0.250000000    -2.059000000
H     7.265000000     0.406000000    -2.461000000
H     5.982000000    -0.366000000    -2.687000000
O     3.209000000    -6.583000000    -1.524000000
H     3.821000000    -5.959000000    -1.133000000
H     2.775000000    -6.993000000    -0.776000000
O    -5.142000000     0.267000000     0.825000000
H    -6.033000000     0.581000000     0.675000000
H    -4.582000000     0.996000000     0.560000000
O     8.029000000    -2.494000000    -1.256000000
H     8.833000000    -1.977000000    -1.215000000
H     7.361000000    -1.877000000    -1.553000000
O    -3.933000000     1.044000000    -5.170000000
H    -3.004000000     1.266000000    -5.114000000
H    -4.377000000     1.747000000    -4.696000000
O     5.811000000     0.697000000     0.800000000
H     5.390000000     0.978000000    -0.012000000
H     6.709000000     1.018000000     0.729000000
O    -5.577000000    -1.517000000    -1.200000000
H    -5.486000000    -0.730000000    -0.664000000
H    -6.244000000    -1.290000000    -1.848000000
O    -3.543000000     5.085000000    -0.644000000
H    -4.465000000     5.259000000    -0.836000000
H    -3.563000000     4.491000000     0.106000000
O     2.770000000    -2.999000000     2.913000000
H     1.826000000    -2.836000000     2.927000000
H     2.896000000    -3.611000000     2.187000000
O     1.377000000    -4.968000000    -3.258000000
H     1.032000000    -4.772000000    -2.386000000
H     1.958000000    -5.716000000    -3.122000000
O    -0.948000000     1.861000000    -4.309000000
H    -0.143000000     1.588000000    -3.869000000
H    -1.098000000     2.755000000    -4.002000000
O    -7.594000000     1.895000000     0.574000000
H    -7.764000000     2.834000000     0.648000000
H    -7.883000000     1.669000000    -0.311000000
O    -3.245000000     3.377000000     6.084000000
H    -3.364000000     4.324000000     6.165000000
H    -3.431000000     3.037000000     6.959000000
O     0.290000000    -2.843000000    -4.782000000
H     0.609000000    -3.257000000    -3.980000000
H     0.584000000    -3.423000000    -5.485000000
O    -1.212000000     6.270000000     0.194000000
H    -1.906000000     5.647000000    -0.022000000
H    -0.746000000     5.865000000     0.926000000
O     2.190000000     2.315000000     4.480000000
H     1.456000000     1.843000000     4.088000000
H     2.955000000     2.025000000     3.982000000
O     1.566000000     1.754000000    -3.336000000
H     1.389000000     2.681000000    -3.177000000
H     2.452000000     1.618000000    -3.000000000
O    -4.270000000     6.518000000     2.746000000
H    -4.253000000     5.590000000     2.510000000
H    -3.648000000     6.593000000     3.469000000
O    -5.492000000     3.388000000    -3.823000000
H    -4.859000000     3.860000000    -4.363000000
H    -5.565000000     3.911000000    -3.025000000
O    -0.222000000     3.923000000     2.267000000
H    -0.248000000     4.360000000     3.118000000
H    -0.885000000     3.236000000     2.330000000
O    -1.436000000     1.855000000     4.606000000
H    -1.697000000     1.937000000     3.689000000
H    -2.252000000     1.946000000     5.098000000
O     4.431000000     2.296000000    -2.882000000
H     5.141000000     2.496000000    -2.273000000
H     4.815000000     2.426000000    -3.749000000
O    -4.266000000    -0.052000000     3.485000000
H    -4.746000000     0.319000000     2.745000000
H    -4.606000000     0.414000000     4.249000000
O    -1.687000000     4.786000000    -3.034000000
H    -2.065000000     4.781000000    -2.155000000
H    -2.413000000     4.546000000    -3.609000000
O    -3.880000000    -1.551000000    -3.492000000
H    -4.042000000    -1.376000000    -2.565000000
H    -3.924000000    -0.690000000    -3.909000000
O     1.408000000     0.178000000    -5.443000000
H     1.649000000     0.602000000    -4.619000000
H     0.654000000    -0.367000000    -5.221000000
O     0.919000000     4.291000000    -2.678000000
H    -0.004000000     4.476000000    -2.502000000
H     1.393000000     4.987000000    -2.224000000
O     4.217000000    -1.483000000     4.551000000
H     4.209000000    -0.569000000     4.266000000
H     3.625000000    -1.928000000     3.945000000
O     1.979000000     2.942000000     0.549000000
H     1.649000000     2.503000000    -0.235000000
H     1.194000000     3.145000000     1.058000000
O    -5.922000000     3.164000000     4.764000000
H    -6.266000000     4.040000000     4.943000000
H    -5.011000000     3.201000000     5.056000000
O    -4.903000000     3.689000000     2.183000000
H    -4.181000000     3.332000000     1.666000000
H    -4.645000000     3.539000000     3.092000000
