161
-3044.84230
C    -0.850000000     0.579000000    -1.116000000
H    -1.605000000     0.750000000    -1.879000000
C     0.197000000    -0.325000000    -1.299000000
H     0.407000000    -0.889000000    -2.204000000
C     0.894000000    -0.819000000    -0.148000000
C     1.893000000    -1.898000000    -0.323000000
H     2.296000000    -1.981000000    -1.335000000
H     2.713000000    -1.613000000     0.339000000
H     1.588000000    -2.889000000     0.020000000
C     0.589000000    -0.322000000     1.066000000
H     1.136000000    -0.637000000     1.951000000
C    -0.353000000     0.666000000     1.281000000
H    -0.431000000     1.108000000     2.272000000
C    -1.127000000     1.099000000     0.160000000
C    -2.158000000     2.112000000     0.371000000
O    -2.322000000     2.743000000     1.401000000
O    -2.875000000     2.318000000    -0.563000000
O    -5.864000000     4.006000000    -3.173000000
H    -6.211000000     4.225000000    -2.308000000
H    -4.934000000     3.836000000    -3.022000000
O     2.868000000    -1.457000000     5.258000000
H     2.996000000    -0.651000000     4.758000000
H     2.778000000    -1.164000000     6.165000000
O    -1.266000000     1.745000000    -5.714000000
H    -1.270000000     2.679000000    -5.924000000
H    -0.400000000     1.443000000    -5.987000000
O    -2.847000000    -0.929000000     4.763000000
H    -2.240000000    -0.206000000     4.602000000
H    -2.871000000    -1.410000000     3.936000000
O    -1.374000000    -5.033000000     4.293000000
H    -1.817000000    -4.390000000     4.847000000
H    -0.828000000    -4.508000000     3.707000000
O     0.972000000    -4.481000000     2.406000000
H     1.913000000    -4.318000000     2.357000000
H     0.684000000    -3.997000000     3.180000000
O    -2.071000000    -1.914000000     2.373000000
H    -1.537000000    -1.476000000     1.711000000
H    -1.500000000    -2.596000000     2.728000000
O    -3.566000000     6.674000000     1.563000000
H    -3.801000000     6.430000000     2.458000000
H    -4.287000000     7.232000000     1.271000000
O    -1.023000000    -3.574000000    -3.153000000
H    -1.699000000    -2.968000000    -3.456000000
H    -1.504000000    -4.261000000    -2.692000000
O     5.931000000    -3.205000000    -2.398000000
H     5.629000000    -2.434000000    -2.878000000
H     5.175000000    -3.792000000    -2.387000000
O    -1.603000000    -5.936000000    -1.898000000
H    -2.489000000    -6.254000000    -2.076000000
H    -1.366000000    -6.344000000    -1.065000000
O    -4.354000000     0.701000000    -2.054000000
H    -3.867000000     1.332000000    -1.523000000
H    -4.255000000     1.016000000    -2.952000000
O     0.454000000    -2.945000000     4.539000000
H     0.068000000    -3.177000000     5.384000000
H     1.249000000    -2.462000000     4.764000000
O    -7.090000000     5.085000000    -0.860000000
H    -6.639000000     4.524000000    -0.229000000
H    -7.752000000     5.544000000    -0.343000000
O     5.326000000    -0.767000000    -3.492000000
H     5.751000000     0.078000000    -3.636000000
H     4.423000000    -0.634000000    -3.781000000
O     4.082000000    -5.045000000    -2.108000000
H     3.180000000    -5.041000000    -2.429000000
H     4.243000000    -5.954000000    -1.856000000
O     0.186000000    -1.735000000    -7.617000000
H    -0.165000000    -1.670000000    -6.729000000
H     0.786000000    -0.993000000    -7.693000000
O     1.241000000    -5.371000000    -2.442000000
H     0.502000000    -4.777000000    -2.568000000
H     0.921000000    -6.022000000    -1.817000000
O    -5.223000000     3.525000000     0.512000000
H    -5.436000000     2.594000000     0.452000000
H    -4.276000000     3.545000000     0.654000000
O     5.922000000     0.847000000     1.837000000
H     6.524000000     0.117000000     1.691000000
H     5.713000000     1.164000000     0.958000000
O    -2.904000000    -1.020000000    -5.483000000
H    -2.338000000    -0.260000000    -5.348000000
H    -2.996000000    -1.408000000    -4.613000000
O     1.680000000    -4.774000000    -5.448000000
H     0.917000000    -5.068000000    -5.946000000
H     1.598000000    -5.217000000    -4.603000000
O    -5.221000000     0.471000000     2.078000000
H    -5.748000000     0.771000000     2.819000000
H    -4.421000000     0.995000000     2.125000000
O    -4.209000000     6.121000000    -4.091000000
H    -4.651000000     5.568000000    -4.735000000
H    -4.211000000     5.601000000    -3.287000000
O     3.649000000    -4.954000000     2.923000000
H     3.781000000    -5.224000000     3.832000000
H     3.261000000    -5.720000000     2.499000000
O     5.953000000    -0.318000000    -0.600000000
H     6.011000000    -0.873000000    -1.378000000
H     5.324000000     0.363000000    -0.839000000
O    -0.154000000    -6.356000000     0.594000000
H     0.282000000    -5.688000000     1.124000000
H     0.493000000    -7.056000000     0.511000000
O     0.501000000     3.144000000    -3.715000000
H    -0.146000000     2.713000000    -4.274000000
H    -0.017000000     3.709000000    -3.141000000
O    -4.236000000     6.081000000     4.089000000
H    -4.560000000     6.804000000     4.626000000
H    -4.985000000     5.490000000     4.006000000
O    -3.641000000     2.236000000     6.422000000
H    -2.923000000     1.668000000     6.141000000
H    -3.556000000     3.017000000     5.875000000
O    -0.372000000     5.672000000    -1.388000000
H     0.560000000     5.858000000    -1.506000000
H    -0.453000000     5.428000000    -0.466000000
O     0.694000000    -1.904000000    -4.638000000
H     0.319000000    -2.253000000    -3.830000000
H     0.972000000    -2.678000000    -5.128000000
O     3.777000000     0.825000000     3.901000000
H     3.514000000     1.538000000     3.319000000
H     4.493000000     0.389000000     3.438000000
O     1.297000000     0.567000000    -5.614000000
H     2.080000000     0.989000000    -5.260000000
H     1.224000000    -0.252000000    -5.122000000
O     2.688000000     3.556000000     2.776000000
H     3.383000000     4.210000000     2.699000000
H     2.540000000     3.258000000     1.878000000
O    -3.875000000     1.698000000    -4.621000000
H    -4.334000000     1.702000000    -5.461000000
H    -2.949000000     1.646000000    -4.855000000
O    -1.686000000     4.231000000     3.654000000
H    -2.136000000     5.074000000     3.610000000
H    -2.114000000     3.696000000     2.985000000
O     0.640000000     3.371000000     4.695000000
H    -0.132000000     3.717000000     4.247000000
H     1.381000000     3.762000000     4.232000000
O     3.265000000     2.709000000    -3.353000000
H     3.512000000     2.737000000    -4.277000000
H     2.364000000     3.031000000    -3.336000000
O    -1.207000000     1.182000000     5.183000000
H    -0.830000000     0.970000000     6.037000000
H    -0.756000000     1.983000000     4.915000000
O    -3.292000000     4.587000000    -2.030000000
H    -3.357000000     3.892000000    -1.375000000
H    -2.496000000     5.065000000    -1.794000000
O    -3.619000000    -1.937000000    -2.939000000
H    -3.887000000    -2.463000000    -2.186000000
H    -3.703000000    -1.031000000    -2.640000000
O     4.842000000     2.118000000    -0.994000000
H     4.308000000     2.313000000    -1.764000000
H     5.517000000     2.797000000    -0.992000000
O     5.614000000    -2.305000000     4.829000000
H     5.359000000    -1.595000000     5.419000000
H     4.786000000    -2.710000000     4.569000000
O     2.804000000     2.241000000     0.528000000
H     2.135000000     1.605000000     0.277000000
H     3.522000000     2.088000000    -0.086000000
O     1.415000000     3.102000000     7.146000000
H     1.202000000     3.260000000     6.226000000
H     2.344000000     2.872000000     7.139000000
O    -6.371000000     3.792000000     2.965000000
H    -6.739000000     2.912000000     3.049000000
H    -5.820000000     3.747000000     2.183000000
O    -1.295000000     5.380000000     1.051000000
H    -1.482000000     4.445000000     1.133000000
H    -2.150000000     5.803000000     1.126000000
