161
-3051.85090
C    -0.363000000    -0.087000000    -1.397000000
H    -0.688000000    -0.312000000    -2.410000000
C    -0.303000000    -1.149000000    -0.509000000
H    -0.588000000    -2.128000000    -0.886000000
C     0.166000000    -0.959000000     0.777000000
C     0.022000000    -2.191000000     1.743000000
H     0.988000000    -2.701000000     1.729000000
H    -0.466000000    -2.011000000     2.704000000
H    -0.617000000    -2.988000000     1.360000000
C     0.510000000     0.375000000     1.216000000
H     0.868000000     0.496000000     2.236000000
C     0.458000000     1.443000000     0.266000000
H     0.758000000     2.433000000     0.602000000
C    -0.016000000     1.243000000    -1.001000000
C    -0.222000000     2.494000000    -1.872000000
O     0.066000000     3.628000000    -1.518000000
O    -0.573000000     2.410000000    -3.034000000
O     5.664000000    -0.713000000     1.856000000
H     4.780000000    -0.446000000     2.106000000
H     6.174000000     0.097000000     1.877000000
O     1.855000000     4.763000000    -6.112000000
H     1.839000000     5.577000000    -6.616000000
H     1.226000000     4.907000000    -5.404000000
O     0.833000000     0.759000000     4.762000000
H     1.711000000     0.493000000     4.489000000
H     0.824000000     1.709000000     4.651000000
O     1.289000000    -2.031000000     5.917000000
H     1.212000000    -1.100000000     6.128000000
H     2.036000000    -2.080000000     5.320000000
O     0.261000000     2.902000000    -6.734000000
H     0.579000000     2.353000000    -6.017000000
H     0.744000000     3.723000000    -6.639000000
O     0.465000000    -7.224000000     2.250000000
H    -0.360000000    -6.815000000     2.510000000
H     0.711000000    -6.775000000     1.442000000
O     0.758000000    -5.649000000    -0.185000000
H     1.100000000    -4.760000000    -0.278000000
H     0.640000000    -5.957000000    -1.084000000
O     3.446000000    -1.635000000     4.172000000
H     3.549000000    -0.833000000     3.660000000
H     3.600000000    -2.341000000     3.545000000
O     1.797000000     3.422000000     4.470000000
H     2.431000000     3.520000000     5.179000000
H     1.377000000     4.280000000     4.403000000
O     3.500000000    -3.648000000     2.217000000
H     3.029000000    -4.353000000     2.662000000
H     3.213000000    -3.706000000     1.306000000
O     2.996000000    -6.137000000     3.374000000
H     2.259000000    -6.581000000     2.955000000
H     2.621000000    -5.738000000     4.159000000
O    -0.394000000    -0.880000000    -6.021000000
H    -1.285000000    -0.651000000    -5.759000000
H     0.160000000    -0.247000000    -5.564000000
O    -2.887000000    -5.224000000    -0.103000000
H    -2.803000000    -4.344000000     0.265000000
H    -2.503000000    -5.798000000     0.560000000
O    -3.061000000     5.490000000    -4.781000000
H    -3.959000000     5.784000000    -4.629000000
H    -3.153000000     4.703000000    -5.317000000
O    -2.149000000    -6.121000000     2.807000000
H    -2.878000000    -6.366000000     3.377000000
H    -1.931000000    -5.227000000     3.068000000
O     3.407000000     3.019000000     1.638000000
H     4.006000000     3.688000000     1.309000000
H     2.724000000     3.512000000     2.094000000
O    -4.305000000    -0.030000000    -2.372000000
H    -5.148000000     0.376000000    -2.172000000
H    -4.530000000    -0.814000000    -2.873000000
O    -2.111000000     3.916000000     1.277000000
H    -2.567000000     3.931000000     2.118000000
H    -2.354000000     3.076000000     0.887000000
O    -0.426000000     5.198000000    -4.549000000
H    -0.240000000     4.611000000    -3.816000000
H    -1.361000000     5.389000000    -4.471000000
O     2.642000000    -1.608000000    -2.393000000
H     1.841000000    -1.514000000    -1.877000000
H     3.129000000    -0.801000000    -2.227000000
O    -2.005000000     6.961000000     1.594000000
H    -1.080000000     7.105000000     1.397000000
H    -2.043000000     6.923000000     2.550000000
O     2.940000000    -3.957000000    -0.450000000
H     3.323000000    -4.662000000    -0.971000000
H     3.278000000    -3.154000000    -0.847000000
O     3.384000000     2.959000000    -4.020000000
H     3.831000000     2.112000000    -4.011000000
H     3.183000000     3.134000000    -3.101000000
O    -5.842000000    -4.308000000     1.023000000
H    -4.934000000    -4.010000000     0.963000000
H    -5.964000000    -4.862000000     0.253000000
O    -3.550000000    -1.259000000     2.676000000
H    -3.326000000    -0.513000000     3.232000000
H    -3.790000000    -1.953000000     3.290000000
O     2.210000000     7.875000000    -3.770000000
H     2.453000000     7.193000000    -4.397000000
H     1.583000000     7.449000000    -3.185000000
O    -0.846000000    -4.031000000     4.436000000
H    -0.026000000    -3.538000000     4.399000000
H    -0.640000000    -4.798000000     4.971000000
O    -3.482000000     1.950000000    -0.739000000
H    -3.564000000     2.618000000    -1.420000000
H    -3.653000000     1.124000000    -1.192000000
O    -2.699000000     1.064000000     3.596000000
H    -2.107000000     1.196000000     2.856000000
H    -3.164000000     1.896000000     3.682000000
O     2.630000000     3.607000000    -1.486000000
H     1.698000000     3.601000000    -1.704000000
H     2.670000000     3.998000000    -0.614000000
O    -3.500000000    -3.612000000     4.792000000
H    -2.576000000    -3.700000000     4.556000000
H    -3.488000000    -3.351000000     5.713000000
O     4.000000000     5.682000000    -3.742000000
H     3.715000000     5.732000000    -2.830000000
H     3.684000000     4.832000000    -4.046000000
O     3.649000000     6.119000000    -0.918000000
H     3.340000000     6.326000000    -0.036000000
H     4.104000000     6.911000000    -1.204000000
O     4.896000000    -1.587000000    -0.639000000
H     4.614000000    -0.699000000    -0.860000000
H     5.364000000    -1.490000000     0.191000000
O     0.376000000     5.015000000     0.818000000
H    -0.346000000     4.567000000     1.259000000
H     0.369000000     4.662000000    -0.072000000
O    -2.150000000     0.372000000    -4.302000000
H    -2.678000000     0.248000000    -3.513000000
H    -1.572000000     1.105000000    -4.090000000
O    -3.168000000    -2.729000000     0.439000000
H    -3.175000000    -2.217000000     1.247000000
H    -3.078000000    -2.078000000    -0.257000000
O    -5.192000000     2.003000000    -4.272000000
H    -5.567000000     1.872000000    -3.401000000
H    -4.458000000     2.601000000    -4.129000000
O     1.268000000     1.055000000    -5.028000000
H     2.161000000     0.804000000    -4.790000000
H     0.937000000     1.519000000    -4.259000000
O     3.865000000     0.707000000    -1.491000000
H     4.612000000     1.276000000    -1.676000000
H     3.140000000     1.310000000    -1.327000000
O    -2.416000000     3.057000000    -5.981000000
H    -1.495000000     3.311000000    -5.924000000
H    -2.395000000     2.114000000    -6.143000000
O    -3.163000000     3.511000000    -2.936000000
H    -2.309000000     3.081000000    -2.888000000
H    -2.987000000     4.342000000    -3.378000000
O     2.438000000     6.524000000     1.722000000
H     1.704000000     5.910000000     1.740000000
H     2.806000000     6.484000000     2.605000000
O     3.666000000     0.923000000     3.324000000
H     3.532000000     1.546000000     2.610000000
H     4.001000000     1.453000000     4.046000000
O    -1.266000000    -3.479000000    -6.571000000
H    -1.193000000    -2.579000000    -6.252000000
H    -0.428000000    -3.882000000    -6.345000000
O    -2.368000000     5.829000000    -0.930000000
H    -2.246000000     5.979000000     0.008000000
H    -1.841000000     5.053000000    -1.119000000
O    -1.640000000    -0.422000000     5.952000000
H    -0.788000000    -0.590000000     5.549000000
H    -2.181000000    -0.085000000     5.238000000
O    -0.618000000     7.750000000    -1.648000000
H    -1.107000000     8.572000000    -1.687000000
H    -1.281000000     7.085000000    -1.463000000
