161
-3042.61676
C    -0.832000000     0.890000000    -0.851000000
H    -1.527000000     1.385000000    -1.525000000
C    -0.537000000    -0.454000000    -1.098000000
H    -1.037000000    -1.024000000    -1.877000000
C     0.219000000    -1.164000000    -0.155000000
C     0.468000000    -2.631000000    -0.458000000
H     1.185000000    -3.117000000     0.206000000
H    -0.419000000    -3.231000000    -0.245000000
H     0.979000000    -2.732000000    -1.417000000
C     0.886000000    -0.497000000     0.834000000
H     1.581000000    -1.023000000     1.483000000
C     0.654000000     0.870000000     1.006000000
H     1.103000000     1.297000000     1.899000000
C    -0.306000000     1.523000000     0.266000000
C    -0.831000000     2.917000000     0.575000000
O    -0.775000000     3.287000000     1.740000000
O    -0.808000000     3.696000000    -0.377000000
O     0.582000000    -2.249000000     4.311000000
H    -0.330000000    -2.455000000     4.107000000
H     0.676000000    -1.325000000     4.079000000
O    -0.429000000     6.231000000    -1.092000000
H    -0.576000000     5.315000000    -0.855000000
H    -0.310000000     6.216000000    -2.041000000
O     3.246000000     1.160000000    -0.361000000
H     2.830000000     1.613000000    -1.096000000
H     2.629000000     0.466000000    -0.128000000
O    -4.729000000    -3.598000000     1.561000000
H    -4.197000000    -2.956000000     2.031000000
H    -5.175000000    -3.090000000     0.884000000
O     2.211000000    -2.578000000     6.626000000
H     1.921000000    -2.551000000     5.714000000
H     2.010000000    -1.706000000     6.966000000
O     2.478000000    -2.541000000    -4.028000000
H     3.193000000    -2.435000000    -4.656000000
H     2.342000000    -1.664000000    -3.670000000
O    -2.594000000     7.865000000    -0.805000000
H    -3.051000000     7.078000000    -1.102000000
H    -1.735000000     7.551000000    -0.521000000
O     1.683000000     7.129000000     2.928000000
H     1.467000000     7.219000000     2.000000000
H     1.637000000     6.187000000     3.095000000
O    -2.155000000     5.780000000     2.030000000
H    -2.723000000     5.053000000     1.772000000
H    -1.453000000     5.777000000     1.380000000
O    -4.266000000     2.876000000    -1.167000000
H    -4.594000000     2.859000000    -2.066000000
H    -3.967000000     1.981000000    -1.005000000
O     3.006000000    -4.580000000    -2.122000000
H     2.807000000    -4.504000000    -1.188000000
H     2.785000000    -3.722000000    -2.484000000
O    -4.562000000     5.097000000     5.038000000
H    -3.700000000     5.266000000     4.657000000
H    -4.994000000     4.520000000     4.408000000
O    -0.951000000     4.233000000    -5.667000000
H    -0.195000000     4.702000000    -6.020000000
H    -0.729000000     4.079000000    -4.749000000
O    -4.247000000     7.400000000     1.387000000
H    -3.676000000     7.735000000     0.695000000
H    -3.716000000     6.745000000     1.839000000
O    -3.138000000    -4.253000000    -0.492000000
H    -3.702000000    -3.955000000     0.222000000
H    -3.660000000    -4.119000000    -1.282000000
O    -2.628000000    -1.944000000    -3.849000000
H    -3.107000000    -2.010000000    -4.675000000
H    -3.238000000    -2.277000000    -3.191000000
O     2.184000000     3.125000000    -2.074000000
H     1.836000000     3.782000000    -1.472000000
H     2.599000000     3.633000000    -2.771000000
O     1.282000000     7.881000000     0.274000000
H     1.290000000     8.806000000     0.028000000
H     0.553000000     7.508000000    -0.222000000
O     5.376000000    -0.392000000    -0.982000000
H     4.636000000     0.089000000    -0.611000000
H     5.504000000    -1.131000000    -0.386000000
O     3.527000000    -4.600000000     1.797000000
H     2.636000000    -4.908000000     1.964000000
H     4.029000000    -4.898000000     2.555000000
O    -2.955000000     1.618000000    -3.710000000
H    -2.816000000     1.849000000    -4.629000000
H    -3.434000000     0.790000000    -3.741000000
O     0.302000000     5.726000000     6.097000000
H     0.756000000     4.936000000     6.388000000
H    -0.532000000     5.409000000     5.750000000
O     1.671000000    -7.231000000    -0.270000000
H     0.761000000    -7.157000000     0.015000000
H     1.728000000    -6.665000000    -1.040000000
O    -3.657000000     1.321000000     2.639000000
H    -3.663000000     2.111000000     2.099000000
H    -3.179000000     1.574000000     3.429000000
O     2.171000000    -6.222000000    -4.130000000
H     2.391000000    -5.737000000    -3.334000000
H     1.307000000    -6.593000000    -3.952000000
O    -3.605000000     0.229000000    -0.178000000
H    -2.817000000    -0.163000000    -0.554000000
H    -3.470000000     0.175000000     0.769000000
O     2.344000000     5.323000000     0.111000000
H     1.915000000     6.174000000     0.206000000
H     2.322000000     4.945000000     0.990000000
O    -4.015000000     3.952000000     1.442000000
H    -3.797000000     3.796000000     0.523000000
H    -4.933000000     4.222000000     1.428000000
O     2.497000000     2.345000000     4.317000000
H     2.456000000     2.426000000     5.270000000
H     3.424000000     2.203000000     4.129000000
O    -4.723000000    -2.814000000    -2.208000000
H    -5.149000000    -2.249000000    -1.563000000
H    -5.442000000    -3.301000000    -2.611000000
O    -1.547000000     2.078000000     4.057000000
H    -1.080000000     2.466000000     3.317000000
H    -1.063000000     1.276000000     4.252000000
O     5.234000000     2.410000000     1.119000000
H     4.783000000     3.002000000     0.518000000
H     4.877000000     1.545000000     0.916000000
O     1.762000000     1.057000000    -3.868000000
H     2.069000000     1.575000000    -4.612000000
H     1.744000000     1.676000000    -3.137000000
O     0.539000000     0.479000000     4.466000000
H     0.667000000     0.394000000     5.411000000
H     1.291000000     0.990000000     4.167000000
O     5.442000000    -5.424000000    -1.633000000
H     5.863000000    -5.933000000    -2.326000000
H     4.562000000    -5.247000000    -1.967000000
O     5.586000000    -1.034000000     3.305000000
H     5.409000000    -0.851000000     4.227000000
H     6.351000000    -0.496000000     3.097000000
O     0.961000000    -5.652000000     2.711000000
H     1.214000000    -6.573000000     2.640000000
H     0.302000000    -5.532000000     2.027000000
O    -1.933000000     7.878000000     4.442000000
H    -1.129000000     8.032000000     4.938000000
H    -1.753000000     7.087000000     3.934000000
O    -0.932000000     3.675000000    -2.983000000
H    -1.607000000     3.012000000    -3.127000000
H    -0.628000000     3.517000000    -2.089000000
O    -2.965000000     2.306000000     6.381000000
H    -2.241000000     2.051000000     5.809000000
H    -2.859000000     3.251000000     6.494000000
O    -0.937000000    -5.461000000     0.611000000
H    -1.184000000    -4.772000000    -0.005000000
H    -1.744000000    -5.955000000     0.753000000
O    -0.028000000    -0.982000000    -4.865000000
H     0.329000000    -0.279000000    -4.323000000
H    -0.738000000    -1.352000000    -4.341000000
O    -6.255000000     0.210000000    -1.114000000
H    -6.057000000     0.684000000    -1.921000000
H    -5.456000000     0.282000000    -0.591000000
O    -3.697000000     5.576000000    -2.253000000
H    -3.028000000     5.086000000    -2.731000000
H    -4.130000000     4.920000000    -1.707000000
O     1.242000000     4.498000000     2.975000000
H     1.582000000     3.860000000     3.602000000
H     0.504000000     4.052000000     2.558000000
O    -0.354000000    -3.500000000    -6.280000000
H    -0.620000000    -3.098000000    -7.107000000
H    -0.113000000    -2.762000000    -5.721000000
O    -1.712000000     4.754000000     4.529000000
H    -1.639000000     3.816000000     4.350000000
H    -1.633000000     5.168000000     3.669000000
O     5.233000000    -2.632000000     1.015000000
H     4.531000000    -3.278000000     0.932000000
H     5.007000000    -2.133000000     1.800000000
