161
-3020.68007
C    -1.266000000     0.255000000    -0.831000000
H    -2.051000000     0.373000000    -1.575000000
C    -0.271000000    -0.727000000    -1.099000000
H    -0.388000000    -1.343000000    -1.987000000
C     0.808000000    -0.991000000    -0.220000000
C     1.924000000    -1.892000000    -0.561000000
H     2.316000000    -2.568000000     0.202000000
H     1.608000000    -2.390000000    -1.479000000
H     2.767000000    -1.255000000    -0.837000000
C     0.831000000    -0.230000000     0.955000000
H     1.589000000    -0.374000000     1.720000000
C    -0.068000000     0.772000000     1.208000000
H     0.094000000     1.319000000     2.133000000
C    -1.173000000     1.093000000     0.351000000
C    -2.028000000     2.302000000     0.647000000
O    -1.638000000     3.197000000     1.384000000
O    -3.062000000     2.467000000    -0.015000000
O     2.425000000    -4.613000000     3.404000000
H     2.802000000    -5.427000000     3.070000000
H     2.780000000    -3.933000000     2.832000000
O    -1.870000000     5.617000000    -0.666000000
H    -2.111000000     5.026000000    -1.379000000
H    -1.419000000     5.057000000    -0.033000000
O     3.197000000    -1.847000000     3.096000000
H     3.140000000    -0.918000000     2.872000000
H     4.001000000    -1.922000000     3.609000000
O    -0.350000000    -4.868000000     2.227000000
H     0.417000000    -4.582000000     2.723000000
H    -1.087000000    -4.429000000     2.652000000
O     2.046000000     0.336000000    -2.887000000
H     1.296000000    -0.189000000    -3.166000000
H     1.748000000     0.777000000    -2.092000000
O     1.209000000     5.671000000     4.542000000
H     2.145000000     5.794000000     4.382000000
H     0.898000000     5.182000000     3.780000000
O     3.986000000     0.753000000     5.245000000
H     3.501000000     0.029000000     5.641000000
H     4.797000000     0.355000000     4.931000000
O     6.450000000    -4.351000000    -3.011000000
H     6.510000000    -3.613000000    -3.618000000
H     5.848000000    -4.052000000    -2.329000000
O     0.343000000    -1.248000000    -4.429000000
H    -0.106000000    -1.985000000    -4.015000000
H    -0.242000000    -0.976000000    -5.136000000
O     2.017000000     6.495000000     1.471000000
H     2.090000000     7.268000000     0.910000000
H     1.504000000     5.872000000     0.955000000
O    -4.638000000     0.505000000    -1.499000000
H    -4.430000000     0.897000000    -2.347000000
H    -4.328000000     1.144000000    -0.857000000
O    -3.355000000    -1.970000000    -1.887000000
H    -3.863000000    -1.197000000    -2.133000000
H    -2.909000000    -1.717000000    -1.080000000
O     1.499000000    -4.617000000    -4.301000000
H     0.786000000    -3.989000000    -4.191000000
H     1.106000000    -5.465000000    -4.095000000
O    -3.190000000     4.966000000     3.030000000
H    -2.690000000     4.367000000     2.476000000
H    -2.572000000     5.236000000     3.710000000
O    -2.073000000     8.371000000     2.566000000
H    -2.108000000     7.415000000     2.526000000
H    -1.192000000     8.565000000     2.888000000
O    -4.918000000    -3.983000000    -3.103000000
H    -5.799000000    -3.889000000    -2.741000000
H    -4.368000000    -3.441000000    -2.538000000
O     2.297000000     2.457000000     3.743000000
H     2.848000000     3.165000000     3.408000000
H     2.917000000     1.778000000     4.012000000
O     1.124000000     3.873000000    -2.221000000
H     1.306000000     4.778000000    -2.475000000
H     1.941000000     3.566000000    -1.829000000
O    -7.280000000     4.839000000    -1.287000000
H    -7.845000000     4.777000000    -0.516000000
H    -6.656000000     4.120000000    -1.184000000
O    -6.995000000     1.289000000     1.093000000
H    -6.640000000     0.462000000     0.768000000
H    -7.921000000     1.263000000     0.854000000
O    -0.068000000     7.620000000    -1.149000000
H    -0.531000000     8.453000000    -1.236000000
H    -0.753000000     6.986000000    -0.938000000
O     4.794000000     0.347000000    -2.312000000
H     3.870000000     0.169000000    -2.486000000
H     4.991000000    -0.159000000    -1.524000000
O     3.370000000    -6.741000000     2.262000000
H     3.275000000    -7.629000000     1.918000000
H     4.004000000    -6.325000000     1.679000000
O    -3.722000000     0.513000000    -4.110000000
H    -3.846000000    -0.432000000    -4.021000000
H    -4.125000000     0.729000000    -4.951000000
O     3.119000000    -0.274000000    -5.247000000
H     2.812000000     0.112000000    -4.427000000
H     2.737000000    -1.152000000    -5.256000000
O     2.778000000    -5.528000000    -0.808000000
H     2.581000000    -6.432000000    -1.054000000
H     1.922000000    -5.102000000    -0.755000000
O    -3.150000000    -1.410000000     3.644000000
H    -3.456000000    -2.035000000     4.301000000
H    -2.351000000    -1.040000000     4.020000000
O    -3.713000000    -1.639000000     0.782000000
H    -3.417000000    -1.338000000     1.640000000
H    -3.623000000    -2.592000000     0.818000000
O     3.799000000    -3.139000000    -4.367000000
H     3.143000000    -3.836000000    -4.347000000
H     4.026000000    -2.999000000    -3.448000000
O    -1.656000000     0.879000000     5.043000000
H    -1.164000000     1.531000000     4.544000000
H    -1.948000000     1.346000000     5.825000000
O     3.854000000     3.216000000    -1.564000000
H     4.597000000     3.469000000    -1.015000000
H     4.033000000     2.308000000    -1.806000000
O    -1.730000000     6.050000000     4.839000000
H    -1.794000000     6.242000000     5.774000000
H    -0.790000000     5.968000000     4.675000000
O    -0.432000000     3.020000000     3.907000000
H    -0.808000000     3.023000000     3.027000000
H     0.489000000     2.795000000     3.773000000
O     6.448000000    -2.111000000    -4.458000000
H     6.943000000    -1.352000000    -4.767000000
H     5.541000000    -1.808000000    -4.425000000
O     0.093000000     2.988000000    -4.465000000
H    -0.261000000     3.766000000    -4.898000000
H     0.089000000     3.210000000    -3.534000000
O     5.383000000    -0.788000000     0.411000000
H     6.266000000    -0.631000000     0.744000000
H     4.814000000    -0.666000000     1.171000000
O     0.366000000    -4.517000000    -0.480000000
H     0.374000000    -3.614000000    -0.799000000
H    -0.323000000    -4.530000000     0.184000000
O    -3.536000000     5.200000000    -4.284000000
H    -3.375000000     4.732000000    -5.104000000
H    -3.065000000     4.693000000    -3.623000000
O    -2.402000000     3.574000000    -2.530000000
H    -2.490000000     2.829000000    -3.125000000
H    -2.870000000     3.307000000    -1.740000000
O    -0.648000000     2.963000000     6.832000000
H    -0.679000000     3.361000000     5.962000000
H    -0.019000000     2.247000000     6.745000000
O    -1.191000000    -3.176000000    -3.631000000
H    -2.044000000    -2.972000000    -3.248000000
H    -1.380000000    -3.836000000    -4.298000000
O    -5.375000000     3.458000000     0.061000000
H    -4.546000000     2.980000000     0.038000000
H    -6.015000000     2.813000000     0.361000000
O     0.449000000     4.449000000     0.622000000
H     0.754000000     4.223000000    -0.257000000
H    -0.258000000     3.829000000     0.798000000
O     4.263000000    -6.006000000    -3.315000000
H     3.781000000    -5.754000000    -2.527000000
H     5.102000000    -5.552000000    -3.238000000
O    -4.600000000     6.111000000     0.173000000
H    -3.658000000     6.059000000     0.334000000
H    -4.875000000     5.201000000     0.065000000
O     4.595000000    -3.722000000    -1.276000000
H     3.897000000    -4.338000000    -1.053000000
H     4.688000000    -3.174000000    -0.497000000
O    -6.562000000    -1.419000000     0.751000000
H    -6.547000000    -2.335000000     1.030000000
H    -5.659000000    -1.232000000     0.493000000
O    -5.910000000     4.255000000     3.534000000
H    -5.954000000     3.299000000     3.505000000
H    -5.056000000     4.466000000     3.157000000
