161
-3064.13385
C    -0.710000000     0.943000000    -1.003000000
H    -1.310000000     1.730000000    -1.453000000
C    -1.242000000    -0.321000000    -0.538000000
H    -2.256000000    -0.615000000    -0.795000000
C    -0.401000000    -1.165000000     0.168000000
C    -0.948000000    -2.327000000     0.916000000
H    -1.971000000    -2.087000000     1.212000000
H    -0.986000000    -3.208000000     0.272000000
H    -0.343000000    -2.598000000     1.785000000
C     0.884000000    -0.824000000     0.453000000
H     1.376000000    -1.502000000     1.145000000
C     1.379000000     0.404000000     0.137000000
H     2.332000000     0.746000000     0.534000000
C     0.621000000     1.333000000    -0.629000000
C     1.102000000     2.764000000    -0.715000000
O     1.928000000     3.227000000     0.035000000
O     0.547000000     3.496000000    -1.522000000
O     3.692000000    -0.502000000     4.705000000
H     3.586000000    -1.443000000     4.562000000
H     4.312000000    -0.226000000     4.029000000
O     3.240000000     5.353000000    -3.567000000
H     2.529000000     5.904000000    -3.896000000
H     3.409000000     5.684000000    -2.684000000
O    -1.510000000    -0.625000000     4.051000000
H    -1.882000000    -0.086000000     3.353000000
H    -0.662000000    -0.222000000     4.238000000
O     3.120000000     2.694000000    -4.402000000
H     3.249000000     3.628000000    -4.239000000
H     2.228000000     2.519000000    -4.104000000
O    -0.878000000    -4.602000000     3.119000000
H    -0.225000000    -5.278000000     2.938000000
H    -1.181000000    -4.324000000     2.255000000
O     0.852000000    -5.715000000    -0.569000000
H     0.779000000    -6.469000000     0.015000000
H     1.526000000    -5.965000000    -1.201000000
O     2.941000000     2.414000000     5.263000000
H     2.990000000     1.459000000     5.215000000
H     3.231000000     2.712000000     4.401000000
O     0.873000000     0.805000000     3.879000000
H     1.744000000     0.458000000     4.075000000
H     1.040000000     1.659000000     3.480000000
O     3.019000000    -3.055000000     3.885000000
H     3.453000000    -3.810000000     4.283000000
H     3.018000000    -3.246000000     2.947000000
O     5.327000000    -3.781000000    -2.080000000
H     4.539000000    -3.360000000    -1.737000000
H     5.213000000    -4.709000000    -1.873000000
O     0.528000000    -3.311000000     5.051000000
H    -0.153000000    -3.420000000     4.387000000
H     1.297000000    -3.024000000     4.559000000
O    -5.497000000     3.452000000    -3.893000000
H    -6.389000000     3.109000000    -3.845000000
H    -4.973000000     2.714000000    -4.205000000
O    -0.037000000     0.018000000    -4.761000000
H     0.618000000    -0.594000000    -4.426000000
H     0.291000000     0.881000000    -4.509000000
O    -1.791000000    -5.370000000    -2.066000000
H    -2.210000000    -4.510000000    -2.088000000
H    -1.026000000    -5.250000000    -1.504000000
O    -2.580000000    -4.835000000     5.204000000
H    -2.080000000    -4.773000000     4.390000000
H    -2.825000000    -3.931000000     5.404000000
O     3.539000000     3.521000000     2.542000000
H     3.717000000     4.457000000     2.451000000
H     3.234000000     3.250000000     1.676000000
O    -3.826000000     3.376000000    -1.604000000
H    -4.379000000     3.557000000    -2.364000000
H    -4.312000000     2.719000000    -1.106000000
O    -1.890000000     5.535000000     2.431000000
H    -2.143000000     5.647000000     1.515000000
H    -1.333000000     4.756000000     2.432000000
O    -1.108000000     7.791000000    -0.611000000
H    -1.228000000     8.738000000    -0.674000000
H    -1.996000000     7.442000000    -0.526000000
O     3.380000000     5.546000000    -0.429000000
H     2.745000000     6.099000000     0.026000000
H     2.969000000     4.682000000    -0.456000000
O     6.027000000     0.578000000     3.362000000
H     6.618000000     0.603000000     4.115000000
H     6.143000000     1.429000000     2.939000000
O    -6.810000000    -1.583000000    -3.444000000
H    -5.858000000    -1.680000000    -3.444000000
H    -6.960000000    -0.688000000    -3.138000000
O     3.369000000    -2.349000000    -1.009000000
H     2.738000000    -1.749000000    -1.406000000
H     3.936000000    -1.785000000    -0.483000000
O    -5.613000000     1.507000000    -0.458000000
H    -5.156000000     0.977000000     0.195000000
H    -6.022000000     2.210000000     0.047000000
O     2.687000000    -4.244000000     1.029000000
H     2.826000000    -3.617000000     0.319000000
H     1.823000000    -4.618000000     0.853000000
O     2.148000000    -0.921000000    -3.162000000
H     1.866000000    -1.775000000    -3.489000000
H     2.844000000    -0.652000000    -3.762000000
O    -5.752000000    -2.872000000    -0.494000000
H    -5.143000000    -2.182000000    -0.757000000
H    -5.584000000    -3.587000000    -1.107000000
O    -4.420000000     0.638000000     1.608000000
H    -3.577000000     1.076000000     1.724000000
H    -4.525000000     0.109000000     2.398000000
O    -4.166000000    -0.238000000    -2.536000000
H    -4.164000000     0.510000000    -1.940000000
H    -4.108000000     0.150000000    -3.409000000
O    -0.940000000    -1.784000000     7.043000000
H    -0.854000000    -0.852000000     6.845000000
H    -0.664000000    -2.226000000     6.241000000
O    -1.680000000     4.789000000    -0.346000000
H    -2.424000000     4.301000000    -0.699000000
H    -0.936000000     4.511000000    -0.879000000
O     5.932000000     1.385000000    -0.673000000
H     5.851000000     2.318000000    -0.475000000
H     5.719000000     1.318000000    -1.604000000
O    -1.644000000     1.672000000     1.927000000
H    -1.276000000     1.233000000     1.160000000
H    -0.894000000     2.102000000     2.340000000
O     6.664000000     4.048000000    -0.509000000
H     7.417000000     4.608000000    -0.319000000
H     5.933000000     4.657000000    -0.611000000
O    -4.899000000    -0.900000000     3.790000000
H    -4.264000000    -1.453000000     4.245000000
H    -5.731000000    -1.363000000     3.886000000
O     0.628000000     3.732000000     2.655000000
H     1.013000000     4.208000000     3.390000000
H     1.235000000     3.880000000     1.929000000
O    -3.211000000     6.548000000    -3.888000000
H    -3.102000000     5.947000000    -3.151000000
H    -2.476000000     7.156000000    -3.811000000
O     4.965000000     0.921000000    -3.520000000
H     4.125000000     1.382000000    -3.536000000
H     5.415000000     1.216000000    -4.312000000
O     1.364000000    -6.272000000     3.405000000
H     1.704000000    -6.946000000     2.817000000
H     2.141000000    -5.909000000     3.829000000
O    -2.968000000    -2.896000000    -2.803000000
H    -3.661000000    -3.295000000    -3.328000000
H    -3.226000000    -1.978000000    -2.723000000
O    -2.901000000    -5.060000000     0.725000000
H    -3.809000000    -4.961000000     1.011000000
H    -2.903000000    -4.763000000    -0.185000000
O     0.481000000     2.697000000    -4.111000000
H     0.092000000     3.365000000    -4.675000000
H     0.391000000     3.048000000    -3.225000000
O    -1.345000000    -7.374000000     1.129000000
H    -1.782000000    -6.560000000     0.881000000
H    -1.976000000    -7.823000000     1.691000000
O    -0.400000000    -3.793000000    -4.508000000
H    -0.121000000    -3.371000000    -5.321000000
H    -1.080000000    -3.216000000    -4.160000000
O    -0.392000000     5.055000000    -5.296000000
H    -0.258000000     5.882000000    -5.761000000
H    -0.744000000     5.314000000    -4.444000000
O     0.802000000     6.190000000     0.341000000
H     0.057000000     6.702000000     0.026000000
H     0.543000000     5.279000000     0.201000000
O     4.963000000    -0.780000000     0.634000000
H     5.506000000    -0.026000000     0.405000000
H     4.587000000    -0.556000000     1.485000000
O    -0.002000000     5.720000000    -2.782000000
H     0.380000000     5.021000000    -2.251000000
H     0.658000000     6.414000000    -2.774000000
