161
-3022.78814
C     0.561000000     0.474000000    -1.299000000
H     0.995000000     0.724000000    -2.264000000
C    -0.022000000    -0.771000000    -1.044000000
H    -0.243000000    -1.412000000    -1.894000000
C    -0.455000000    -1.113000000     0.233000000
C    -0.820000000    -2.545000000     0.439000000
H    -0.667000000    -2.904000000     1.459000000
H    -1.888000000    -2.652000000     0.241000000
H    -0.206000000    -3.274000000    -0.096000000
C    -0.428000000    -0.203000000     1.265000000
H    -0.819000000    -0.377000000     2.264000000
C     0.181000000     1.048000000     1.007000000
H     0.194000000     1.749000000     1.838000000
C     0.607000000     1.458000000    -0.300000000
C     0.880000000     2.909000000    -0.546000000
O     1.271000000     3.609000000     0.360000000
O     0.854000000     3.281000000    -1.669000000
O     0.018000000    -0.850000000     4.972000000
H     0.836000000    -0.371000000     4.840000000
H     0.217000000    -1.478000000     5.666000000
O    -0.944000000    -3.486000000     5.331000000
H    -0.740000000    -2.629000000     4.957000000
H    -0.187000000    -4.029000000     5.114000000
O    -0.006000000    -6.857000000     1.888000000
H     0.218000000    -6.616000000     0.989000000
H    -0.549000000    -7.641000000     1.797000000
O     0.934000000    -6.576000000    -2.229000000
H     1.321000000    -7.442000000    -2.094000000
H     1.182000000    -6.339000000    -3.122000000
O     1.926000000     0.663000000     4.213000000
H     1.636000000     1.488000000     3.824000000
H     2.527000000     0.292000000     3.566000000
O     0.746000000     3.469000000     5.322000000
H     0.434000000     3.873000000     4.512000000
H     1.360000000     4.107000000     5.687000000
O    -4.663000000    -3.651000000     3.637000000
H    -5.242000000    -4.282000000     3.209000000
H    -4.326000000    -3.112000000     2.922000000
O    -5.419000000    -4.500000000     0.029000000
H    -5.357000000    -4.672000000    -0.911000000
H    -5.757000000    -5.315000000     0.400000000
O     3.070000000    -3.238000000     3.149000000
H     2.386000000    -3.700000000     3.634000000
H     2.732000000    -3.178000000     2.255000000
O     0.885000000    -5.081000000     4.109000000
H     0.602000000    -5.382000000     3.245000000
H     1.251000000    -5.861000000     4.526000000
O    -0.026000000     0.464000000    -5.871000000
H     0.266000000    -0.283000000    -5.347000000
H     0.424000000     1.216000000    -5.486000000
O    -2.192000000    -4.935000000    -2.496000000
H    -2.579000000    -4.061000000    -2.564000000
H    -1.254000000    -4.774000000    -2.392000000
O    -2.873000000    -5.898000000     3.529000000
H    -2.952000000    -5.074000000     4.008000000
H    -2.129000000    -5.765000000     2.943000000
O     3.971000000     3.133000000     0.397000000
H     4.141000000     3.730000000     1.126000000
H     3.021000000     3.163000000     0.279000000
O    -3.292000000     0.665000000    -1.488000000
H    -4.087000000     1.151000000    -1.708000000
H    -3.482000000    -0.236000000    -1.749000000
O    -2.376000000     4.836000000     1.681000000
H    -3.318000000     4.918000000     1.534000000
H    -2.168000000     3.943000000     1.409000000
O    -1.047000000     7.483000000     1.714000000
H    -1.251000000     8.024000000     0.951000000
H    -1.507000000     6.660000000     1.553000000
O     1.245000000     6.193000000    -4.304000000
H     0.503000000     5.850000000    -3.806000000
H     1.263000000     7.127000000    -4.095000000
O    -3.361000000    -7.295000000    -1.396000000
H    -4.040000000    -7.410000000    -2.060000000
H    -2.916000000    -6.485000000    -1.645000000
O     3.068000000    -2.190000000    -2.487000000
H     3.296000000    -3.117000000    -2.421000000
H     3.853000000    -1.775000000    -2.845000000
O     2.773000000    -2.768000000     0.541000000
H     2.168000000    -2.245000000     0.015000000
H     3.386000000    -2.129000000     0.906000000
O    -5.185000000     1.979000000     1.084000000
H    -4.760000000     1.393000000     1.710000000
H    -5.108000000     2.848000000     1.477000000
O     3.589000000    -5.500000000    -0.271000000
H     3.413000000    -5.404000000    -1.207000000
H     3.124000000    -4.770000000     0.137000000
O     1.567000000    -2.475000000    -5.011000000
H     1.813000000    -2.378000000    -4.091000000
H     2.292000000    -2.961000000    -5.404000000
O     4.797000000     5.762000000    -4.795000000
H     4.034000000     6.175000000    -5.198000000
H     4.430000000     5.119000000    -4.188000000
O    -4.558000000    -2.239000000     1.265000000
H    -5.262000000    -1.669000000     0.955000000
H    -4.852000000    -3.123000000     1.044000000
O    -3.728000000     0.853000000     3.607000000
H    -2.809000000     0.966000000     3.850000000
H    -3.921000000    -0.061000000     3.818000000
O    -2.243000000     2.217000000     0.804000000
H    -3.167000000     1.970000000     0.766000000
H    -1.821000000     1.495000000     1.271000000
O     3.877000000     1.352000000    -4.900000000
H     3.477000000     2.115000000    -4.481000000
H     3.164000000     0.952000000    -5.399000000
O    -1.258000000     1.467000000     4.675000000
H    -0.818000000     0.701000000     5.044000000
H    -0.637000000     2.185000000     4.805000000
O     3.342000000     3.678000000    -2.856000000
H     2.400000000     3.529000000    -2.768000000
H     3.702000000     3.449000000    -1.999000000
O    -4.335000000    -1.559000000     5.724000000
H    -4.347000000    -2.261000000     5.074000000
H    -5.191000000    -1.140000000     5.641000000
O     4.884000000     6.744000000    -0.942000000
H     4.011000000     6.381000000    -0.790000000
H     4.913000000     7.533000000    -0.401000000
O     4.660000000    -0.229000000    -0.236000000
H     5.483000000     0.158000000    -0.534000000
H     4.483000000    -0.929000000    -0.865000000
O     0.448000000     4.290000000     2.898000000
H    -0.465000000     4.563000000     2.807000000
H     0.747000000     4.147000000     2.000000000
O    -1.620000000     2.726000000    -2.628000000
H    -1.924000000     2.027000000    -2.049000000
H    -0.717000000     2.888000000    -2.356000000
O     5.269000000    -0.993000000    -4.525000000
H     6.202000000    -0.837000000    -4.669000000
H     4.869000000    -0.125000000    -4.581000000
O    -3.626000000    -2.501000000    -2.341000000
H    -3.506000000    -2.831000000    -1.450000000
H    -4.278000000    -1.806000000    -2.253000000
O    -3.594000000     2.730000000    -4.850000000
H    -4.360000000     2.832000000    -4.285000000
H    -2.851000000     2.722000000    -4.247000000
O     0.721000000     2.698000000    -4.600000000
H    -0.085000000     3.125000000    -4.889000000
H     0.802000000     2.939000000    -3.678000000
O     6.301000000     2.390000000    -0.822000000
H     6.721000000     3.214000000    -1.066000000
H     5.464000000     2.653000000    -0.438000000
O    -1.200000000     3.771000000    -5.897000000
H    -1.344000000     4.509000000    -6.490000000
H    -2.072000000     3.556000000    -5.565000000
O    -3.717000000     5.075000000    -2.775000000
H    -3.396000000     5.945000000    -3.012000000
H    -2.925000000     4.570000000    -2.588000000
O     2.172000000     6.039000000    -0.394000000
H     1.749000000     6.706000000     0.146000000
H     1.754000000     5.219000000    -0.134000000
O     4.108000000     0.810000000     2.471000000
H     4.161000000     0.351000000     1.633000000
H     4.305000000     1.722000000     2.258000000
O    -0.587000000    -2.947000000    -6.410000000
H    -0.355000000    -3.771000000    -6.837000000
H     0.118000000    -2.796000000    -5.781000000
O    -0.687000000     5.519000000    -1.113000000
H     0.154000000     5.090000000    -1.268000000
H    -1.154000000     4.925000000    -0.525000000
O    -0.823000000     8.128000000    -1.271000000
H    -1.735000000     8.369000000    -1.108000000
H    -0.861000000     7.207000000    -1.528000000
