161
-3034.88351
C     0.585000000    -1.323000000    -0.003000000
H     1.028000000    -2.301000000    -0.169000000
C     0.758000000    -0.375000000    -0.950000000
H     1.489000000    -0.459000000    -1.750000000
C     0.149000000     0.842000000    -0.831000000
C     0.402000000     1.939000000    -1.891000000
H    -0.378000000     2.143000000    -2.628000000
H     0.719000000     2.863000000    -1.403000000
H     1.259000000     1.628000000    -2.492000000
C    -0.693000000     1.062000000     0.194000000
H    -1.234000000     1.997000000     0.321000000
C    -0.904000000     0.100000000     1.187000000
H    -1.602000000     0.163000000     2.018000000
C    -0.187000000    -1.102000000     1.100000000
C    -0.389000000    -2.123000000     2.170000000
O    -1.183000000    -1.861000000     3.068000000
O     0.178000000    -3.192000000     2.055000000
O     1.308000000     6.574000000    -1.365000000
H     2.192000000     6.483000000    -1.722000000
H     1.174000000     7.519000000    -1.294000000
O    -1.526000000    -4.871000000     0.552000000
H    -0.947000000    -4.357000000     1.115000000
H    -1.404000000    -5.774000000     0.844000000
O    -3.516000000    -4.042000000     7.304000000
H    -3.046000000    -3.875000000     6.487000000
H    -4.081000000    -4.789000000     7.107000000
O     2.342000000    -3.658000000    -1.867000000
H     1.969000000    -4.336000000    -1.304000000
H     3.157000000    -3.407000000    -1.433000000
O     4.175000000     3.249000000     0.384000000
H     4.924000000     3.673000000     0.802000000
H     3.413000000     3.601000000     0.845000000
O     3.453000000     4.902000000    -4.998000000
H     3.789000000     4.524000000    -5.811000000
H     2.519000000     5.031000000    -5.162000000
O     1.314000000    -4.632000000     3.940000000
H     2.124000000    -4.123000000     3.920000000
H     0.726000000    -4.172000000     3.340000000
O    -1.035000000    -2.658000000    -2.232000000
H    -0.791000000    -3.562000000    -2.432000000
H    -0.372000000    -2.364000000    -1.607000000
O     1.040000000    -7.488000000     3.719000000
H     0.403000000    -7.689000000     4.404000000
H     1.116000000    -6.534000000     3.734000000
O     1.259000000    -5.694000000    -0.186000000
H     0.776000000    -5.642000000    -1.011000000
H     0.710000000    -6.238000000     0.379000000
O    -3.305000000    -5.336000000    -1.672000000
H    -2.659000000    -4.982000000    -1.061000000
H    -2.788000000    -5.634000000    -2.420000000
O    -1.556000000     2.376000000     6.820000000
H    -2.156000000     1.842000000     6.299000000
H    -2.105000000     3.073000000     7.179000000
O     2.065000000    -2.184000000    -4.242000000
H     1.985000000    -2.731000000    -5.023000000
H     2.126000000    -2.808000000    -3.518000000
O     3.816000000     0.724000000    -0.302000000
H     3.600000000     0.295000000     0.526000000
H     3.868000000     1.654000000    -0.083000000
O     0.776000000    -0.166000000    -5.618000000
H     1.201000000    -0.858000000    -5.111000000
H     0.876000000    -0.441000000    -6.529000000
O    -3.474000000    -1.734000000    -2.850000000
H    -3.154000000    -0.968000000    -3.325000000
H    -2.696000000    -2.275000000    -2.715000000
O     2.349000000     4.391000000     2.130000000
H     1.460000000     4.310000000     1.785000000
H     2.577000000     5.310000000     1.991000000
O    -0.150000000    -7.629000000     1.107000000
H     0.269000000    -7.562000000     1.966000000
H    -0.835000000    -8.287000000     1.225000000
O    -3.544000000    -5.969000000     4.399000000
H    -3.778000000    -5.956000000     3.471000000
H    -2.770000000    -5.409000000     4.459000000
O    -3.794000000    -1.280000000     3.707000000
H    -2.938000000    -1.541000000     3.366000000
H    -4.330000000    -1.142000000     2.926000000
O     0.149000000     3.837000000    -7.603000000
H     0.536000000     3.713000000    -6.736000000
H    -0.751000000     4.109000000    -7.428000000
O     3.525000000    -4.518000000     1.133000000
H     2.630000000    -4.778000000     0.914000000
H     3.999000000    -5.344000000     1.223000000
O    -6.689000000    -0.677000000     2.318000000
H    -7.494000000    -0.171000000     2.213000000
H    -6.077000000    -0.284000000     1.696000000
O     3.296000000     3.613000000    -2.651000000
H     2.688000000     4.219000000    -2.227000000
H     3.462000000     4.002000000    -3.510000000
O    -3.390000000     5.245000000    -4.300000000
H    -2.467000000     5.462000000    -4.172000000
H    -3.515000000     4.433000000    -3.808000000
O    -1.794000000    -4.016000000     4.692000000
H    -0.995000000    -4.304000000     5.133000000
H    -1.537000000    -3.222000000     4.224000000
O     1.443000000     2.568000000    -5.483000000
H     1.424000000     1.641000000    -5.247000000
H     1.767000000     3.008000000    -4.697000000
O     3.281000000    -2.518000000     3.915000000
H     2.967000000    -1.799000000     4.462000000
H     2.862000000    -2.374000000     3.066000000
O    -0.042000000     5.489000000     0.782000000
H     0.295000000     5.962000000     0.021000000
H    -0.714000000     6.066000000     1.144000000
O    -3.473000000    -2.673000000     0.314000000
H    -3.529000000    -2.943000000    -0.603000000
H    -2.828000000    -3.266000000     0.700000000
O    -0.056000000    -5.200000000    -2.722000000
H     0.743000000    -5.175000000    -3.248000000
H    -0.605000000    -5.858000000    -3.149000000
O    -2.415000000     5.576000000     3.413000000
H    -2.641000000     4.831000000     3.970000000
H    -1.568000000     5.874000000     3.743000000
O    -5.877000000    -3.706000000     0.639000000
H    -6.103000000    -3.603000000    -0.286000000
H    -5.100000000    -3.161000000     0.758000000
O     2.809000000    -0.339000000     5.568000000
H     3.054000000     0.360000000     6.174000000
H     1.886000000    -0.507000000     5.755000000
O     0.549000000     5.167000000    -3.929000000
H     0.546000000     6.121000000    -4.011000000
H     0.140000000     4.998000000    -3.080000000
O    -0.177000000    -0.605000000     5.548000000
H    -0.868000000    -1.014000000     5.026000000
H    -0.197000000     0.317000000     5.291000000
O    -1.404000000     4.818000000    -1.955000000
H    -1.695000000     5.729000000    -1.953000000
H    -0.922000000     4.718000000    -1.134000000
O    -0.144000000     2.265000000     4.608000000
H    -0.267000000     2.380000000     5.550000000
H     0.177000000     3.114000000     4.303000000
O     4.464000000     1.119000000    -2.862000000
H     4.360000000     2.057000000    -2.705000000
H     4.079000000     0.703000000    -2.090000000
O    -5.853000000     0.932000000    -3.284000000
H    -4.953000000     1.226000000    -3.423000000
H    -5.768000000     0.013000000    -3.028000000
O    -3.576000000     0.399000000     5.798000000
H    -3.501000000    -0.290000000     5.138000000
H    -4.046000000     1.105000000     5.356000000
O    -3.112000000     1.463000000    -3.200000000
H    -2.662000000     1.665000000    -4.020000000
H    -2.464000000     0.982000000    -2.684000000
O    -1.564000000     1.629000000    -5.289000000
H    -1.467000000     2.029000000    -6.153000000
H    -0.867000000     0.974000000    -5.248000000
O     0.396000000    -5.297000000     6.366000000
H     0.939000000    -5.004000000     5.635000000
H    -0.190000000    -5.950000000     5.983000000
O     4.698000000    -1.003000000    -4.802000000
H     4.731000000    -0.154000000    -4.360000000
H     3.807000000    -1.318000000    -4.649000000
O     4.286000000    -2.389000000    -0.216000000
H     3.646000000    -1.724000000    -0.468000000
H     3.830000000    -2.928000000     0.431000000
O    -4.714000000    -0.213000000     0.466000000
H    -4.018000000    -0.864000000     0.559000000
H    -4.412000000     0.362000000    -0.237000000
O     2.696000000     0.575000000     2.297000000
H     2.474000000     0.729000000     3.216000000
H     1.852000000     0.558000000     1.847000000
