161
-3055.20970
C     0.026000000     1.442000000     0.241000000
H    -0.022000000     2.514000000     0.416000000
C    -0.971000000     0.614000000     0.665000000
H    -1.836000000     0.976000000     1.214000000
C    -0.833000000    -0.791000000     0.460000000
C    -1.810000000    -1.777000000     1.001000000
H    -2.739000000    -1.555000000     0.472000000
H    -1.455000000    -2.809000000     0.959000000
H    -2.040000000    -1.575000000     2.049000000
C     0.231000000    -1.243000000    -0.331000000
H     0.363000000    -2.299000000    -0.551000000
C     1.147000000    -0.398000000    -0.816000000
H     1.997000000    -0.730000000    -1.407000000
C     1.076000000     0.951000000    -0.520000000
C     2.010000000     1.974000000    -1.172000000
O     3.038000000     1.582000000    -1.708000000
O     1.811000000     3.122000000    -0.967000000
O    -0.396000000     7.418000000    -0.686000000
H    -0.243000000     6.728000000    -1.331000000
H    -1.254000000     7.213000000    -0.315000000
O    -2.773000000     6.286000000     0.906000000
H    -2.846000000     5.344000000     0.753000000
H    -3.367000000     6.680000000     0.267000000
O    -1.224000000     0.892000000     4.386000000
H    -1.467000000     1.731000000     3.995000000
H    -0.807000000     1.127000000     5.215000000
O    -1.165000000     3.338000000     2.701000000
H    -0.244000000     3.521000000     2.519000000
H    -1.616000000     3.540000000     1.881000000
O    -6.389000000    -4.064000000    -1.155000000
H    -6.256000000    -4.535000000    -1.978000000
H    -6.746000000    -3.216000000    -1.420000000
O    -3.844000000    -5.214000000     3.518000000
H    -3.697000000    -5.938000000     4.127000000
H    -2.999000000    -4.766000000     3.471000000
O     7.500000000     1.970000000    -0.166000000
H     6.591000000     1.708000000    -0.025000000
H     7.825000000     2.187000000     0.708000000
O    -5.443000000     0.531000000    -1.391000000
H    -5.272000000     0.295000000    -0.479000000
H    -4.574000000     0.619000000    -1.782000000
O     1.877000000     3.914000000    -3.701000000
H     2.587000000     4.037000000    -3.071000000
H     1.079000000     3.968000000    -3.175000000
O    -0.550000000     4.448000000    -2.071000000
H    -1.294000000     3.865000000    -2.222000000
H     0.006000000     3.972000000    -1.453000000
O    -0.456000000     0.546000000    -4.559000000
H     0.473000000     0.671000000    -4.366000000
H    -0.470000000    -0.123000000    -5.243000000
O    -4.084000000    -5.976000000    -0.024000000
H    -3.594000000    -6.778000000    -0.207000000
H    -3.983000000    -5.448000000    -0.816000000
O     5.537000000     1.278000000    -2.799000000
H     5.809000000     2.137000000    -3.122000000
H     4.729000000     1.449000000    -2.315000000
O     1.340000000    -5.861000000     2.237000000
H     0.621000000    -5.261000000     2.436000000
H     2.117000000    -5.302000000     2.207000000
O     0.978000000     7.086000000    -4.453000000
H     1.470000000     7.698000000    -5.001000000
H     1.550000000     6.323000000    -4.373000000
O    -3.051000000    -2.743000000     6.512000000
H    -3.046000000    -3.295000000     7.294000000
H    -3.659000000    -3.179000000     5.915000000
O     1.994000000    -4.313000000    -0.595000000
H     1.081000000    -4.352000000    -0.880000000
H     2.490000000    -4.159000000    -1.400000000
O     2.673000000    -2.237000000    -4.190000000
H     2.338000000    -1.341000000    -4.220000000
H     3.407000000    -2.239000000    -4.805000000
O    -5.659000000     3.798000000     1.763000000
H    -5.764000000     2.981000000     2.251000000
H    -6.231000000     4.420000000     2.212000000
O     0.960000000    -4.327000000    -4.266000000
H     1.658000000    -3.674000000    -4.216000000
H     1.076000000    -4.863000000    -3.481000000
O     2.246000000     3.691000000     3.761000000
H     2.917000000     4.362000000     3.635000000
H     2.724000000     2.862000000     3.713000000
O    -2.700000000    -0.236000000    -2.159000000
H    -1.775000000    -0.354000000    -1.946000000
H    -2.767000000    -0.484000000    -3.081000000
O     2.770000000     0.396000000     2.200000000
H     2.502000000    -0.160000000     2.931000000
H     2.011000000     0.410000000     1.618000000
O     3.809000000    -6.645000000    -0.423000000
H     3.154000000    -5.950000000    -0.364000000
H     4.601000000    -6.262000000    -0.046000000
O    -5.307000000    -3.119000000     1.225000000
H    -5.514000000    -3.690000000     0.485000000
H    -5.004000000    -3.715000000     1.910000000
O     5.681000000    -1.187000000    -2.335000000
H     4.749000000    -1.226000000    -2.553000000
H     5.976000000    -0.351000000    -2.696000000
O    -3.132000000     3.624000000     0.586000000
H    -3.054000000     2.803000000     0.100000000
H    -4.030000000     3.621000000     0.919000000
O    -1.727000000     5.717000000    -4.180000000
H    -0.899000000     6.120000000    -4.441000000
H    -1.554000000     5.356000000    -3.310000000
O    -1.340000000    -4.513000000     3.914000000
H    -1.218000000    -5.180000000     4.589000000
H    -1.048000000    -3.700000000     4.326000000
O     2.155000000     5.126000000     0.827000000
H     2.019000000     4.367000000     0.260000000
H     2.262000000     4.756000000     1.703000000
O     6.328000000     4.543000000    -0.187000000
H     6.610000000     3.629000000    -0.213000000
H     6.951000000     5.002000000    -0.750000000
O    -2.657000000     3.087000000    -2.667000000
H    -3.456000000     3.268000000    -3.163000000
H    -2.399000000     2.207000000    -2.941000000
O     2.731000000    -1.840000000     3.794000000
H     2.470000000    -2.487000000     3.138000000
H     3.682000000    -1.928000000     3.851000000
O     2.371000000     7.635000000    -0.374000000
H     2.501000000     6.744000000    -0.050000000
H     1.424000000     7.771000000    -0.330000000
O     6.768000000    -1.430000000     0.336000000
H     6.368000000    -1.638000000    -0.508000000
H     6.358000000    -0.605000000     0.598000000
O     4.985000000     0.650000000     0.767000000
H     4.596000000     0.901000000    -0.071000000
H     4.235000000     0.482000000     1.338000000
O    -7.061000000    -1.810000000    -2.329000000
H    -6.485000000    -1.114000000    -2.015000000
H    -7.710000000    -1.359000000    -2.869000000
O    -5.853000000     1.775000000     3.486000000
H    -6.681000000     1.502000000     3.881000000
H    -5.295000000     0.999000000     3.537000000
O    -0.982000000    -1.898000000     5.120000000
H    -0.929000000    -1.070000000     4.642000000
H    -1.883000000    -1.931000000     5.442000000
O     2.711000000     0.659000000    -4.217000000
H     3.063000000     1.140000000    -4.966000000
H     2.961000000     1.184000000    -3.457000000
O    -2.270000000    -4.509000000    -3.504000000
H    -2.610000000    -3.627000000    -3.655000000
H    -2.859000000    -5.080000000    -3.997000000
O     4.457000000     3.990000000    -2.272000000
H     3.886000000     3.303000000    -1.926000000
H     4.683000000     4.520000000    -1.509000000
O    -0.316000000    -5.210000000    -1.547000000
H    -0.744000000    -6.060000000    -1.449000000
H    -0.900000000    -4.713000000    -2.120000000
O    -2.176000000     4.824000000     4.819000000
H    -3.025000000     4.457000000     4.574000000
H    -1.612000000     4.651000000     4.065000000
O    -5.483000000    -3.520000000     4.636000000
H    -6.202000000    -4.067000000     4.952000000
H    -4.873000000    -4.137000000     4.232000000
O    -4.959000000    -0.274000000     1.094000000
H    -5.049000000    -1.207000000     0.901000000
H    -4.698000000    -0.244000000     2.014000000
O     3.483000000    -4.070000000     1.809000000
H     4.340000000    -4.404000000     1.545000000
H     3.061000000    -3.819000000     0.987000000
O    -4.542000000    -0.359000000     4.129000000
H    -4.886000000    -1.242000000     4.265000000
H    -3.692000000    -0.362000000     4.568000000
