161
-3031.07792
C    -0.533000000     1.409000000    -0.083000000
H    -0.902000000     2.425000000    -0.188000000
C    -1.116000000     0.195000000    -0.622000000
H    -2.050000000     0.239000000    -1.176000000
C    -0.584000000    -1.024000000    -0.459000000
C    -1.260000000    -2.259000000    -0.981000000
H    -1.906000000    -2.613000000    -0.175000000
H    -1.899000000    -2.054000000    -1.842000000
H    -0.525000000    -3.051000000    -1.145000000
C     0.614000000    -1.101000000     0.246000000
H     1.033000000    -2.094000000     0.391000000
C     1.227000000    -0.011000000     0.725000000
H     2.109000000    -0.098000000     1.355000000
C     0.759000000     1.308000000     0.535000000
C     1.494000000     2.575000000     1.041000000
O     2.587000000     2.496000000     1.546000000
O     0.959000000     3.661000000     0.834000000
O    -0.322000000    -2.197000000     3.414000000
H    -0.137000000    -3.051000000     3.022000000
H    -1.105000000    -1.889000000     2.958000000
O     2.174000000     6.275000000     1.273000000
H     1.652000000     5.530000000     0.973000000
H     3.081000000     5.989000000     1.168000000
O     6.975000000    -1.694000000     1.501000000
H     7.497000000    -2.355000000     1.956000000
H     6.104000000    -1.766000000     1.891000000
O    -4.014000000    -1.067000000    -3.778000000
H    -4.189000000    -0.528000000    -4.550000000
H    -3.329000000    -1.673000000    -4.060000000
O    -3.929000000    -3.009000000     2.085000000
H    -3.368000000    -2.234000000     2.081000000
H    -3.494000000    -3.623000000     1.493000000
O    -1.990000000    -2.916000000    -4.753000000
H    -1.069000000    -2.719000000    -4.929000000
H    -2.359000000    -3.119000000    -5.613000000
O     1.043000000     8.626000000     0.001000000
H     1.379000000     7.907000000     0.537000000
H     1.123000000     8.312000000    -0.899000000
O     4.398000000    -0.030000000    -1.812000000
H     4.401000000    -0.986000000    -1.860000000
H     5.032000000     0.177000000    -1.125000000
O    -4.713000000     5.170000000     1.834000000
H    -3.991000000     4.920000000     1.259000000
H    -5.497000000     5.057000000     1.297000000
O     3.305000000    -4.903000000    -0.946000000
H     3.920000000    -5.570000000    -0.641000000
H     2.650000000    -5.391000000    -1.445000000
O    -0.513000000     3.083000000    -3.785000000
H    -0.141000000     3.417000000    -2.968000000
H    -1.298000000     2.607000000    -3.514000000
O     6.542000000     0.378000000     4.632000000
H     6.087000000     0.631000000     3.829000000
H     6.949000000     1.187000000     4.942000000
O    -0.711000000    -6.660000000    -1.778000000
H    -1.408000000    -6.093000000    -2.110000000
H    -0.689000000    -7.395000000    -2.391000000
O    -2.552000000    -4.986000000    -2.977000000
H    -3.281000000    -5.429000000    -3.412000000
H    -2.445000000    -4.169000000    -3.463000000
O     3.266000000     2.871000000    -1.838000000
H     3.935000000     3.536000000    -1.676000000
H     3.617000000     2.075000000    -1.437000000
O     5.989000000     0.595000000     0.149000000
H     5.609000000     1.185000000     0.799000000
H     6.356000000    -0.124000000     0.664000000
O     5.431000000     3.864000000     5.179000000
H     5.748000000     3.700000000     4.291000000
H     5.929000000     4.627000000     5.474000000
O    -0.914000000    -5.006000000     2.720000000
H    -0.556000000    -5.012000000     1.832000000
H    -1.523000000    -5.744000000     2.737000000
O    -3.330000000     2.333000000    -3.215000000
H    -3.246000000     1.423000000    -3.499000000
H    -4.051000000     2.683000000    -3.738000000
O     4.547000000    -2.679000000    -1.634000000
H     5.415000000    -3.004000000    -1.873000000
H     4.092000000    -3.446000000    -1.285000000
O    -4.790000000    -5.123000000     3.452000000
H    -4.095000000    -5.777000000     3.377000000
H    -4.501000000    -4.401000000     2.894000000
O    -4.490000000     2.624000000    -0.261000000
H    -4.315000000     2.436000000    -1.183000000
H    -5.271000000     3.177000000    -0.273000000
O    -3.318000000    -5.202000000    -0.273000000
H    -3.068000000    -6.108000000    -0.093000000
H    -3.183000000    -5.099000000    -1.215000000
O    -3.113000000     2.038000000     2.998000000
H    -3.419000000     2.523000000     3.764000000
H    -2.463000000     2.613000000     2.595000000
O    -2.453000000    -0.629000000     1.956000000
H    -2.597000000     0.223000000     2.369000000
H    -1.783000000    -0.462000000     1.292000000
O     6.037000000     6.357000000     2.195000000
H     6.356000000     6.910000000     1.482000000
H     5.398000000     5.777000000     1.781000000
O     4.586000000     1.194000000     2.758000000
H     4.124000000     1.866000000     2.258000000
H     3.990000000     0.445000000     2.760000000
O    -5.372000000     0.690000000     1.894000000
H    -4.642000000     0.980000000     2.441000000
H    -5.160000000     1.014000000     1.019000000
O     0.417000000     6.812000000    -2.160000000
H    -0.442000000     7.018000000    -2.530000000
H     0.362000000     5.885000000    -1.928000000
O     3.513000000     1.886000000     5.504000000
H     3.054000000     2.298000000     4.772000000
H     4.303000000     2.414000000     5.620000000
O     3.895000000    -1.590000000     2.598000000
H     3.489000000    -2.330000000     2.147000000
H     3.987000000    -1.882000000     3.505000000
O     6.131000000     3.101000000    -1.100000000
H     6.731000000     3.519000000    -0.483000000
H     6.098000000     2.187000000    -0.820000000
O    -5.266000000    -3.638000000    -3.592000000
H    -5.725000000    -3.547000000    -4.427000000
H    -4.592000000    -2.958000000    -3.615000000
O     0.847000000     4.091000000    -1.788000000
H     1.618000000     3.554000000    -1.970000000
H     0.681000000     3.963000000    -0.854000000
O     2.041000000     7.339000000     3.753000000
H     2.077000000     6.838000000     2.938000000
H     1.510000000     6.802000000     4.341000000
O    -1.288000000     4.306000000     2.429000000
H    -0.408000000     4.064000000     2.139000000
H    -1.149000000     4.769000000     3.255000000
O     4.303000000     4.542000000     0.800000000
H     3.730000000     3.954000000     1.292000000
H     4.835000000     3.960000000     0.258000000
O     1.799000000    -0.594000000    -2.533000000
H     1.179000000    -0.228000000    -1.903000000
H     2.660000000    -0.410000000    -2.157000000
O     1.221000000     0.152000000     3.971000000
H     1.874000000    -0.220000000     4.563000000
H     0.727000000    -0.604000000     3.653000000
O    -1.975000000     7.459000000    -0.022000000
H    -1.561000000     7.815000000     0.764000000
H    -1.892000000     6.510000000     0.073000000
O    -6.677000000    -0.191000000    -2.616000000
H    -5.780000000    -0.398000000    -2.878000000
H    -7.224000000    -0.630000000    -3.268000000
O     0.711000000     5.460000000     5.086000000
H     0.018000000     5.235000000     5.706000000
H     0.867000000     4.652000000     4.597000000
O    -2.576000000     4.579000000     0.102000000
H    -3.110000000     3.785000000     0.082000000
H    -2.063000000     4.502000000     0.907000000
O     0.949000000    -2.422000000    -4.792000000
H     1.404000000    -1.795000000    -4.229000000
H     0.925000000    -1.999000000    -5.650000000
O    -4.398000000     5.702000000    -1.900000000
H    -4.987000000     5.132000000    -2.395000000
H    -3.706000000     5.118000000    -1.589000000
O     0.311000000    -5.319000000     0.306000000
H     1.063000000    -4.893000000    -0.104000000
H    -0.121000000    -5.785000000    -0.410000000
O     1.645000000     3.068000000     3.841000000
H     2.101000000     3.037000000     3.000000000
H     1.179000000     2.233000000     3.892000000
O     1.422000000    -5.298000000    -3.333000000
H     1.507000000    -4.445000000    -3.760000000
H     0.479000000    -5.465000000    -3.317000000
