161
-3042.88222
C    -0.238000000     1.465000000     0.355000000
H    -0.334000000     2.468000000     0.763000000
C    -0.700000000     0.333000000     1.054000000
H    -1.293000000     0.486000000     1.952000000
C    -0.396000000    -0.956000000     0.604000000
C    -0.920000000    -2.156000000     1.442000000
H    -0.958000000    -1.832000000     2.485000000
H    -1.914000000    -2.508000000     1.159000000
H    -0.166000000    -2.945000000     1.435000000
C     0.387000000    -1.202000000    -0.487000000
H     0.690000000    -2.209000000    -0.763000000
C     0.752000000    -0.121000000    -1.295000000
H     1.362000000    -0.254000000    -2.185000000
C     0.439000000     1.204000000    -0.853000000
C     1.007000000     2.402000000    -1.591000000
O     1.472000000     2.230000000    -2.758000000
O     0.809000000     3.599000000    -1.322000000
O    -1.895000000     6.056000000    -0.141000000
H    -1.707000000     5.590000000    -0.955000000
H    -2.494000000     5.479000000     0.332000000
O    -2.005000000     2.083000000     4.900000000
H    -1.912000000     2.609000000     4.107000000
H    -1.414000000     2.493000000     5.531000000
O     2.046000000    -1.599000000     5.867000000
H     1.381000000    -1.091000000     5.403000000
H     2.807000000    -1.583000000     5.286000000
O    -1.694000000     4.270000000     2.820000000
H    -0.836000000     3.863000000     2.703000000
H    -2.213000000     3.951000000     2.082000000
O    -6.406000000    -5.099000000     1.133000000
H    -5.925000000    -4.365000000     0.751000000
H    -6.798000000    -5.546000000     0.382000000
O    -4.980000000    -4.407000000    -1.547000000
H    -4.365000000    -5.008000000    -1.127000000
H    -5.247000000    -4.860000000    -2.348000000
O    -0.713000000    -5.631000000     2.729000000
H    -0.461000000    -4.936000000     3.337000000
H    -0.498000000    -6.442000000     3.190000000
O     1.288000000     4.349000000    -4.216000000
H     2.072000000     4.798000000    -3.898000000
H     1.146000000     3.642000000    -3.586000000
O     1.926000000     5.270000000    -6.754000000
H     1.668000000     4.912000000    -5.905000000
H     1.772000000     4.556000000    -7.372000000
O    -1.554000000     4.448000000    -2.232000000
H    -2.048000000     3.646000000    -2.062000000
H    -0.639000000     4.166000000    -2.253000000
O    -3.307000000    -2.237000000    -0.995000000
H    -3.053000000    -2.333000000    -0.078000000
H    -3.945000000    -2.935000000    -1.142000000
O    -2.524000000     0.379000000    -4.721000000
H    -3.035000000     0.627000000    -5.491000000
H    -1.613000000     0.445000000    -5.006000000
O    -3.238000000    -5.264000000     1.224000000
H    -2.309000000    -5.280000000     1.457000000
H    -3.584000000    -4.493000000     1.672000000
O     3.517000000     1.557000000    -4.372000000
H     3.939000000     0.888000000    -3.835000000
H     2.780000000     1.860000000    -3.842000000
O     2.161000000    -4.958000000     3.213000000
H     1.610000000    -4.322000000     3.668000000
H     2.690000000    -4.432000000     2.613000000
O    -2.975000000    -1.933000000     4.769000000
H    -3.272000000    -1.975000000     5.678000000
H    -2.777000000    -2.841000000     4.539000000
O     5.064000000     1.845000000    -6.688000000
H     4.664000000     1.265000000    -7.336000000
H     4.531000000     1.730000000    -5.902000000
O     3.482000000    -2.891000000    -1.236000000
H     2.908000000    -3.205000000    -1.935000000
H     4.143000000    -3.577000000    -1.143000000
O     1.806000000    -1.466000000    -5.498000000
H     1.771000000    -1.642000000    -6.438000000
H     2.687000000    -1.734000000    -5.236000000
O    -1.372000000    -7.848000000    -0.637000000
H    -1.854000000    -8.192000000     0.114000000
H    -0.808000000    -7.168000000    -0.269000000
O     0.209000000    -5.868000000     0.211000000
H    -0.088000000    -5.610000000     1.084000000
H     1.158000000    -5.742000000     0.235000000
O    -0.730000000    -2.367000000    -5.829000000
H    -1.055000000    -2.765000000    -5.021000000
H    -0.035000000    -1.774000000    -5.540000000
O    -4.378000000    -0.134000000    -2.777000000
H    -4.086000000    -0.948000000    -2.366000000
H    -3.659000000     0.113000000    -3.357000000
O     1.586000000     1.846000000     2.553000000
H     1.321000000     1.006000000     2.178000000
H     2.367000000     1.643000000     3.068000000
O    -4.619000000    -2.432000000     2.335000000
H    -5.470000000    -2.579000000     2.748000000
H    -4.047000000    -2.165000000     3.054000000
O     4.315000000    -0.186000000    -2.524000000
H     4.222000000    -0.907000000    -3.146000000
H     5.136000000    -0.369000000    -2.067000000
O    -3.107000000     3.753000000     0.767000000
H    -3.167000000     3.195000000    -0.009000000
H    -3.990000000     3.746000000     1.136000000
O    -1.575000000     6.336000000    -5.483000000
H    -1.036000000     7.103000000    -5.675000000
H    -1.181000000     5.957000000    -4.697000000
O     0.085000000    -3.280000000     4.332000000
H     0.433000000    -2.444000000     4.641000000
H    -0.442000000    -3.605000000     5.063000000
O     1.618000000     4.377000000     1.248000000
H     1.289000000     4.081000000     0.400000000
H     1.850000000     3.571000000     1.710000000
O     3.871000000     7.628000000    -3.624000000
H     4.692000000     7.348000000    -4.028000000
H     3.602000000     6.885000000    -3.085000000
O    -3.218000000     1.555000000    -1.104000000
H    -3.721000000     1.242000000    -1.856000000
H    -3.288000000     0.850000000    -0.460000000
O     0.299000000     6.982000000     1.322000000
H    -0.479000000     6.940000000     0.765000000
H     0.529000000     6.066000000     1.480000000
O     3.969000000     0.340000000     0.144000000
H     3.815000000     0.260000000    -0.797000000
H     3.742000000     1.248000000     0.347000000
O     4.596000000     4.627000000    -0.153000000
H     4.204000000     4.589000000     0.719000000
H     4.011000000     5.197000000    -0.653000000
O     5.648000000     3.679000000    -2.283000000
H     5.086000000     3.512000000    -3.040000000
H     5.038000000     3.835000000    -1.562000000
O    -0.442000000    -0.490000000     4.871000000
H    -0.506000000     0.310000000     4.348000000
H    -1.351000000    -0.737000000     5.042000000
O     0.519000000     1.193000000    -5.157000000
H     1.230000000     0.554000000    -5.135000000
H     0.650000000     1.725000000    -4.372000000
O     4.591000000    -2.485000000    -4.361000000
H     4.519000000    -3.302000000    -4.855000000
H     5.332000000    -2.626000000    -3.772000000
O    -1.197000000    -2.643000000    -2.904000000
H    -0.584000000    -2.076000000    -2.437000000
H    -2.038000000    -2.494000000    -2.471000000
O     2.605000000     5.764000000    -1.794000000
H     1.944000000     5.082000000    -1.668000000
H     2.435000000     6.393000000    -1.093000000
O     1.884000000    -3.906000000    -3.015000000
H     2.301000000    -3.786000000    -3.868000000
H     1.220000000    -4.579000000    -3.165000000
O    -3.079000000    -4.593000000     4.212000000
H    -3.755000000    -5.249000000     4.381000000
H    -2.391000000    -5.071000000     3.749000000
O    -4.998000000    -0.012000000     1.133000000
H    -4.745000000    -0.935000000     1.151000000
H    -5.260000000     0.182000000     2.033000000
O     2.871000000    -2.997000000     1.301000000
H     2.188000000    -2.445000000     1.682000000
H     3.068000000    -2.586000000     0.459000000
O    -4.330000000     0.662000000     4.121000000
H    -4.281000000    -0.190000000     4.555000000
H    -3.588000000     1.154000000     4.473000000
O    -0.960000000     3.196000000    -6.426000000
H    -0.709000000     2.284000000    -6.570000000
H    -0.306000000     3.530000000    -5.812000000
O    -1.172000000    -4.164000000     6.394000000
H    -1.759000000    -3.597000000     6.894000000
H    -1.572000000    -5.032000000     6.450000000
