161
-2989.27765
C    -0.177000000     1.236000000     0.692000000
H    -0.403000000     2.244000000     1.031000000
C    -1.168000000     0.305000000     0.578000000
H    -2.180000000     0.561000000     0.881000000
C    -0.810000000    -0.935000000    -0.008000000
C    -2.004000000    -1.926000000    -0.177000000
H    -1.821000000    -2.709000000    -0.915000000
H    -2.096000000    -2.423000000     0.791000000
H    -2.906000000    -1.361000000    -0.418000000
C     0.458000000    -1.151000000    -0.580000000
H     0.738000000    -2.104000000    -1.023000000
C     1.424000000    -0.155000000    -0.486000000
H     2.448000000    -0.266000000    -0.833000000
C     1.141000000     1.122000000     0.138000000
C     2.165000000     2.213000000     0.075000000
O     3.298000000     2.018000000    -0.215000000
O     1.895000000     3.331000000     0.469000000
O     3.045000000    -4.216000000     1.949000000
H     3.476000000    -4.595000000     2.716000000
H     2.122000000    -4.159000000     2.197000000
O    -2.354000000     4.565000000     5.425000000
H    -2.938000000     5.317000000     5.523000000
H    -2.590000000     4.189000000     4.577000000
O    -1.352000000    -4.462000000     5.867000000
H    -1.715000000    -4.554000000     4.986000000
H    -1.540000000    -3.555000000     6.110000000
O     0.115000000     4.448000000     2.011000000
H     0.815000000     4.204000000     1.405000000
H     0.198000000     3.828000000     2.735000000
O     3.532000000     5.381000000     4.881000000
H     2.651000000     5.049000000     5.054000000
H     3.562000000     5.497000000     3.931000000
O     6.184000000     4.944000000     1.765000000
H     6.631000000     5.076000000     0.929000000
H     5.253000000     4.959000000     1.544000000
O     7.730000000     1.988000000    -2.386000000
H     7.088000000     2.297000000    -3.026000000
H     7.241000000     1.931000000    -1.565000000
O    -7.021000000    -2.262000000     1.767000000
H    -6.843000000    -1.934000000     2.648000000
H    -7.928000000    -2.009000000     1.596000000
O    -6.828000000    -0.321000000    -2.316000000
H    -6.878000000    -0.436000000    -3.265000000
H    -7.679000000     0.044000000    -2.073000000
O     1.524000000     1.467000000    -3.407000000
H     2.081000000     1.255000000    -4.155000000
H     1.946000000     1.037000000    -2.663000000
O    -3.090000000     0.540000000     3.733000000
H    -3.630000000     0.846000000     3.004000000
H    -3.720000000     0.234000000     4.386000000
O    -0.996000000    -6.212000000    -2.783000000
H    -0.910000000    -7.166000000    -2.776000000
H    -1.424000000    -6.004000000    -1.953000000
O    -1.437000000     4.668000000    -0.357000000
H    -1.016000000     4.613000000     0.500000000
H    -0.712000000     4.664000000    -0.981000000
O     0.249000000     5.603000000     4.805000000
H     0.142000000     6.308000000     4.166000000
H    -0.587000000     5.138000000     4.791000000
O     2.155000000    -5.563000000    -3.780000000
H     2.580000000    -6.251000000    -3.268000000
H     1.224000000    -5.652000000    -3.576000000
O     4.610000000    -0.041000000    -4.950000000
H     3.919000000    -0.649000000    -4.687000000
H     5.296000000    -0.600000000    -5.313000000
O    -0.607000000     3.202000000    -3.065000000
H     0.064000000     2.528000000    -3.171000000
H    -1.357000000     2.738000000    -2.695000000
O    -2.457000000    -2.107000000     3.235000000
H    -3.181000000    -2.690000000     3.006000000
H    -2.867000000    -1.250000000     3.355000000
O    -4.863000000     3.852000000     3.379000000
H    -5.755000000     4.201000000     3.380000000
H    -4.919000000     3.054000000     2.853000000
O    -2.698000000    -3.663000000    -3.283000000
H    -2.287000000    -4.397000000    -2.826000000
H    -2.489000000    -3.809000000    -4.206000000
O     1.008000000     5.051000000    -1.626000000
H     0.890000000     4.250000000    -2.137000000
H     1.797000000     4.891000000    -1.108000000
O    -5.063000000     1.415000000     1.777000000
H    -4.794000000     1.167000000     0.893000000
H    -6.009000000     1.547000000     1.712000000
O    -4.667000000    -3.817000000     2.691000000
H    -5.239000000    -4.248000000     3.326000000
H    -5.265000000    -3.344000000     2.112000000
O    -0.097000000     6.913000000     1.165000000
H    -0.050000000     6.050000000     1.575000000
H    -0.400000000     7.494000000     1.863000000
O     5.910000000     3.043000000    -4.321000000
H     5.564000000     2.308000000    -4.828000000
H     5.138000000     3.441000000    -3.920000000
O     2.699000000    -3.196000000    -4.866000000
H     2.652000000    -4.061000000    -4.460000000
H     1.786000000    -2.919000000    -4.946000000
O     3.788000000     6.944000000    -1.154000000
H     4.300000000     7.375000000    -1.838000000
H     3.673000000     6.048000000    -1.469000000
O    -2.910000000    -5.366000000    -1.012000000
H    -2.778000000    -4.507000000    -0.611000000
H    -3.763000000    -5.653000000    -0.688000000
O     0.208000000    -3.323000000     3.092000000
H    -0.488000000    -2.686000000     2.931000000
H    -0.241000000    -4.168000000     3.120000000
O    -5.853000000    -3.675000000    -0.127000000
H    -6.132000000    -2.880000000     0.326000000
H    -6.317000000    -4.383000000     0.321000000
O    -6.170000000    -4.755000000    -2.905000000
H    -5.871000000    -5.639000000    -3.115000000
H    -5.448000000    -4.368000000    -2.410000000
O     6.966000000     0.222000000     2.756000000
H     7.431000000     0.481000000     3.552000000
H     6.040000000     0.287000000     2.987000000
O     3.046000000     5.152000000     1.925000000
H     2.923000000     4.347000000     1.423000000
H     2.708000000     5.843000000     1.355000000
O    -0.567000000     2.467000000     3.796000000
H    -0.549000000     2.269000000     4.732000000
H    -1.147000000     1.804000000     3.422000000
O     4.383000000    -1.951000000     1.011000000
H     3.818000000    -2.690000000     1.236000000
H     3.991000000    -1.204000000     1.464000000
O     6.004000000     1.609000000     0.073000000
H     5.822000000     1.356000000     0.979000000
H     5.225000000     2.093000000    -0.200000000
O    -3.475000000     3.583000000    -1.935000000
H    -3.733000000     3.331000000    -1.049000000
H    -2.699000000     4.130000000    -1.812000000
O     6.189000000    -1.970000000    -0.960000000
H     5.397000000    -1.843000000    -0.438000000
H     5.868000000    -2.220000000    -1.826000000
O     4.320000000     4.319000000    -1.172000000
H     5.138000000     4.577000000    -0.747000000
H     3.996000000     3.588000000    -0.646000000
O    -1.698000000    -1.637000000     6.147000000
H    -2.097000000    -1.742000000     5.283000000
H    -0.789000000    -1.401000000     5.964000000
O    -4.659000000     0.691000000    -0.974000000
H    -5.434000000     0.368000000    -1.434000000
H    -3.934000000     0.514000000    -1.573000000
O     1.840000000    -0.938000000     2.133000000
H     1.689000000    -1.881000000     2.059000000
H     1.021000000    -0.540000000     1.838000000
O    -4.262000000    -6.923000000    -3.380000000
H    -4.468000000    -6.860000000    -4.312000000
H    -3.580000000    -6.266000000    -3.240000000
O     3.660000000     0.713000000     4.890000000
H     3.570000000     1.601000000     5.236000000
H     3.653000000     0.824000000     3.940000000
O     3.957000000     0.542000000     2.026000000
H     3.906000000     0.969000000     1.171000000
H     3.105000000     0.118000000     2.133000000
O     5.238000000    -2.505000000    -3.500000000
H     5.679000000    -2.352000000    -4.336000000
H     4.418000000    -2.937000000    -3.738000000
O    -2.369000000    -5.270000000     3.124000000
H    -2.533000000    -6.139000000     2.758000000
H    -3.080000000    -4.728000000     2.780000000
O     0.145000000    -1.739000000    -5.200000000
H    -0.510000000    -1.463000000    -4.559000000
H    -0.338000000    -1.808000000    -6.023000000
