161
-3035.81260
C    -0.194000000     0.988000000     1.124000000
H    -0.380000000     1.776000000     1.849000000
C    -1.195000000     0.171000000     0.570000000
H    -2.262000000     0.327000000     0.702000000
C    -0.859000000    -0.772000000    -0.417000000
C    -1.891000000    -1.772000000    -0.957000000
H    -2.416000000    -1.382000000    -1.831000000
H    -1.435000000    -2.707000000    -1.287000000
H    -2.675000000    -2.030000000    -0.242000000
C     0.429000000    -0.901000000    -0.801000000
H     0.692000000    -1.728000000    -1.456000000
C     1.478000000    -0.098000000    -0.286000000
H     2.524000000    -0.049000000    -0.577000000
C     1.140000000     0.985000000     0.591000000
C     2.102000000     2.098000000     0.913000000
O     3.220000000     2.025000000     0.603000000
O     1.718000000     3.076000000     1.506000000
O    -3.978000000    -3.385000000    -4.631000000
H    -3.263000000    -2.750000000    -4.671000000
H    -3.678000000    -4.119000000    -5.167000000
O    -1.860000000     2.349000000     5.147000000
H    -0.984000000     1.965000000     5.136000000
H    -2.134000000     2.295000000     6.063000000
O     6.116000000     1.477000000     3.529000000
H     5.688000000     2.330000000     3.598000000
H     6.137000000     1.295000000     2.589000000
O     6.634000000     1.831000000     0.962000000
H     7.405000000     1.403000000     0.591000000
H     6.330000000     2.419000000     0.270000000
O     2.019000000     2.878000000    -2.630000000
H     2.853000000     2.411000000    -2.684000000
H     1.700000000     2.903000000    -3.532000000
O     4.882000000    -1.283000000    -1.723000000
H     4.594000000    -2.141000000    -1.411000000
H     5.569000000    -1.478000000    -2.360000000
O    -3.432000000     2.745000000     3.057000000
H    -2.712000000     2.679000000     3.684000000
H    -3.410000000     3.655000000     2.761000000
O    -2.961000000     4.483000000    -0.450000000
H    -3.026000000     5.212000000    -1.067000000
H    -2.499000000     3.799000000    -0.935000000
O     2.326000000    -5.401000000    -2.043000000
H     2.899000000    -5.994000000    -2.529000000
H     1.729000000    -5.980000000    -1.570000000
O    -5.537000000    -3.263000000    -2.284000000
H    -5.123000000    -3.357000000    -3.142000000
H    -5.185000000    -2.443000000    -1.937000000
O    -3.025000000     1.449000000    -4.042000000
H    -3.484000000     2.185000000    -4.445000000
H    -2.206000000     1.825000000    -3.720000000
O    -4.891000000     0.914000000     4.702000000
H    -4.069000000     1.351000000     4.477000000
H    -5.473000000     1.623000000     4.974000000
O     7.298000000    -1.016000000     1.542000000
H     7.747000000    -1.069000000     0.698000000
H     6.433000000    -0.665000000     1.331000000
O    -5.739000000    -5.112000000     1.592000000
H    -4.812000000    -5.351000000     1.571000000
H    -6.049000000    -5.431000000     2.439000000
O    -2.329000000     5.124000000     1.985000000
H    -1.402000000     4.989000000     2.181000000
H    -2.458000000     4.701000000     1.135000000
O     6.270000000     2.407000000    -3.699000000
H     5.534000000     2.080000000    -3.182000000
H     6.820000000     2.870000000    -3.067000000
O     4.726000000     4.178000000    -0.035000000
H     4.307000000     3.572000000     0.576000000
H     4.422000000     5.043000000     0.240000000
O    -2.036000000    -4.936000000     3.989000000
H    -1.848000000    -5.869000000     3.888000000
H    -2.146000000    -4.616000000     3.093000000
O    -2.088000000     5.651000000     5.009000000
H    -1.818000000     5.104000000     4.272000000
H    -1.717000000     5.217000000     5.778000000
O     4.143000000     1.339000000    -1.912000000
H     3.931000000     1.591000000    -1.013000000
H     4.065000000     0.385000000    -1.917000000
O     0.327000000     4.703000000     3.219000000
H     0.935000000     4.828000000     3.948000000
H     0.789000000     4.115000000     2.621000000
O    -0.449000000    -2.055000000     3.833000000
H    -0.194000000    -2.948000000     3.599000000
H    -0.688000000    -1.648000000     3.000000000
O    -2.128000000    -5.703000000    -2.263000000
H    -1.705000000    -5.022000000    -2.787000000
H    -3.001000000    -5.792000000    -2.645000000
O    -1.238000000     3.802000000    -3.094000000
H    -0.558000000     3.759000000    -2.422000000
H    -0.762000000     3.977000000    -3.906000000
O     3.490000000     1.133000000     5.217000000
H     3.939000000     0.515000000     4.641000000
H     3.462000000     1.949000000     4.718000000
O    -2.162000000    -1.446000000    -4.425000000
H    -1.631000000    -1.599000000    -3.643000000
H    -2.486000000    -0.551000000    -4.324000000
O     2.492000000     6.049000000     4.244000000
H     3.391000000     6.377000000     4.218000000
H     2.018000000     6.601000000     3.622000000
O     0.384000000     6.539000000    -0.799000000
H     0.220000000     5.626000000    -1.036000000
H     0.290000000     7.021000000    -1.620000000
O    -6.754000000    -2.458000000     0.492000000
H    -6.563000000    -3.198000000     1.069000000
H    -6.119000000    -1.788000000     0.745000000
O     4.260000000    -4.111000000    -0.150000000
H     3.808000000    -3.687000000     0.580000000
H     3.558000000    -4.505000000    -0.669000000
O    -7.254000000     0.276000000    -3.194000000
H    -7.274000000     0.679000000    -4.062000000
H    -6.372000000    -0.088000000    -3.119000000
O     5.604000000    -1.355000000     3.914000000
H     6.153000000    -0.586000000     4.067000000
H     5.002000000    -1.086000000     3.220000000
O     3.671000000     3.199000000     3.351000000
H     3.274000000     3.962000000     3.770000000
H     3.309000000     3.196000000     2.465000000
O     2.909000000     5.898000000     0.806000000
H     2.433000000     6.167000000     0.020000000
H     2.379000000     5.192000000     1.177000000
O    -4.503000000     2.001000000     0.517000000
H    -4.371000000     2.547000000     1.293000000
H    -3.896000000     2.357000000    -0.132000000
O     2.193000000    -2.618000000     1.311000000
H     1.469000000    -2.842000000     1.896000000
H     1.841000000    -1.928000000     0.749000000
O     0.357000000     3.922000000    -0.853000000
H     1.050000000     3.408000000    -1.268000000
H     0.465000000     3.757000000     0.083000000
O    -0.845000000    -4.512000000    -4.288000000
H    -1.235000000    -4.588000000    -5.158000000
H     0.095000000    -4.617000000    -4.436000000
O     0.494000000    -4.442000000     2.527000000
H    -0.342000000    -4.740000000     2.167000000
H     1.098000000    -5.166000000     2.362000000
O    -5.437000000    -0.382000000     2.052000000
H    -5.217000000     0.324000000     1.444000000
H    -5.516000000     0.050000000     2.903000000
O    -0.887000000    -0.555000000     6.271000000
H    -0.644000000    -0.981000000     5.449000000
H    -1.816000000    -0.760000000     6.381000000
O    -1.302000000    -5.482000000     0.947000000
H    -1.902000000    -6.172000000     0.663000000
H    -0.745000000    -5.319000000     0.186000000
O     0.950000000     1.798000000     6.130000000
H     0.600000000     0.928000000     6.323000000
H     1.768000000     1.629000000     5.663000000
O     4.402000000    -0.436000000     1.412000000
H     4.248000000     0.506000000     1.344000000
H     3.572000000    -0.834000000     1.147000000
O     2.528000000    -0.408000000    -4.924000000
H     2.795000000    -1.245000000    -4.545000000
H     3.323000000     0.126000000    -4.910000000
O     6.973000000     4.290000000    -1.657000000
H     7.661000000     3.902000000    -1.117000000
H     6.195000000     4.277000000    -1.100000000
O    -4.708000000     0.012000000    -2.261000000
H    -4.145000000     0.592000000    -2.774000000
H    -4.877000000     0.497000000    -1.453000000
O     2.476000000    -2.799000000    -3.021000000
H     2.133000000    -3.222000000    -2.233000000
H     2.594000000    -3.515000000    -3.645000000
