161
-3062.95727
C    -0.374000000     1.298000000    -0.607000000
H    -0.611000000     2.304000000    -0.942000000
C     0.362000000     1.146000000     0.574000000
H     0.585000000     2.031000000     1.165000000
C     0.738000000    -0.078000000     1.037000000
C     1.221000000    -0.278000000     2.448000000
H     0.375000000    -0.001000000     3.080000000
H     1.366000000    -1.346000000     2.626000000
H     2.089000000     0.266000000     2.826000000
C     0.283000000    -1.232000000     0.286000000
H     0.431000000    -2.218000000     0.721000000
C    -0.358000000    -1.082000000    -0.957000000
H    -0.651000000    -1.956000000    -1.533000000
C    -0.695000000     0.208000000    -1.428000000
C    -1.412000000     0.255000000    -2.780000000
O    -1.731000000    -0.720000000    -3.402000000
O    -1.626000000     1.404000000    -3.120000000
O    -2.078000000    -4.770000000    -1.504000000
H    -1.809000000    -4.287000000    -2.286000000
H    -1.983000000    -4.140000000    -0.790000000
O     0.885000000     4.970000000    -4.643000000
H     0.412000000     4.551000000    -3.924000000
H     1.799000000     4.971000000    -4.360000000
O    -0.371000000     0.165000000    -7.518000000
H    -1.100000000     0.251000000    -8.132000000
H    -0.497000000     0.880000000    -6.894000000
O     1.962000000     5.841000000    -0.135000000
H     2.462000000     6.036000000     0.658000000
H     2.451000000     5.135000000    -0.559000000
O     3.750000000    -1.532000000     0.840000000
H     4.045000000    -1.124000000     1.654000000
H     3.219000000    -2.277000000     1.123000000
O    -2.118000000     2.863000000     1.539000000
H    -3.060000000     2.940000000     1.387000000
H    -1.844000000     2.138000000     0.978000000
O     0.697000000    -1.123000000     5.351000000
H     0.906000000    -0.514000000     6.060000000
H     1.451000000    -1.074000000     4.763000000
O    -4.367000000    -1.374000000    -3.097000000
H    -3.466000000    -1.117000000    -3.295000000
H    -4.766000000    -0.584000000    -2.733000000
O     3.306000000     0.801000000    -0.539000000
H     3.771000000     0.274000000     0.111000000
H     2.420000000     0.438000000    -0.551000000
O     3.319000000     2.314000000     5.324000000
H     3.010000000     2.944000000     4.673000000
H     4.273000000     2.359000000     5.266000000
O    -2.438000000    -4.293000000    -4.708000000
H    -1.879000000    -3.586000000    -5.032000000
H    -3.176000000    -3.844000000    -4.295000000
O    -1.828000000    -3.303000000     0.735000000
H    -2.100000000    -2.522000000     1.217000000
H    -1.602000000    -3.937000000     1.415000000
O     2.722000000     3.414000000    -1.433000000
H     2.973000000     2.553000000    -1.099000000
H     1.767000000     3.384000000    -1.480000000
O     0.408000000     3.159000000    -6.531000000
H     0.377000000     3.865000000    -5.885000000
H    -0.460000000     3.167000000    -6.935000000
O    -2.919000000     5.954000000    -4.738000000
H    -2.847000000     5.047000000    -4.439000000
H    -2.354000000     6.447000000    -4.143000000
O     1.079000000    -4.106000000    -5.669000000
H     0.402000000    -3.430000000    -5.705000000
H     1.828000000    -3.719000000    -6.122000000
O    -3.032000000     4.869000000    -1.155000000
H    -3.983000000     4.953000000    -1.079000000
H    -2.688000000     5.650000000    -0.721000000
O    -0.281000000     4.389000000     3.230000000
H    -0.636000000     3.569000000     2.887000000
H    -0.777000000     5.072000000     2.777000000
O    -6.208000000     3.074000000    -4.409000000
H    -5.786000000     3.852000000    -4.045000000
H    -5.490000000     2.456000000    -4.549000000
O    -4.817000000    -1.462000000    -6.596000000
H    -4.528000000    -1.494000000    -5.685000000
H    -4.717000000    -2.361000000    -6.911000000
O     2.684000000    -2.177000000    -1.856000000
H     2.996000000    -1.871000000    -1.005000000
H     1.967000000    -2.776000000    -1.648000000
O     3.904000000    -0.455000000     4.971000000
H     3.967000000    -0.520000000     5.924000000
H     3.684000000     0.462000000     4.807000000
O     2.996000000    -1.177000000    -4.662000000
H     2.955000000    -1.317000000    -3.716000000
H     2.458000000    -0.399000000    -4.813000000
O    -2.123000000    -1.117000000     2.445000000
H    -1.992000000    -1.384000000     3.355000000
H    -1.579000000    -0.336000000     2.345000000
O     1.470000000    -4.793000000    -1.372000000
H     2.081000000    -5.073000000    -2.054000000
H     0.667000000    -5.281000000    -1.555000000
O    -1.406000000    -2.539000000     4.594000000
H    -0.615000000    -2.019000000     4.738000000
H    -1.928000000    -2.403000000     5.385000000
O     4.868000000     0.259000000     2.662000000
H     4.903000000    -0.018000000     3.578000000
H     5.774000000     0.204000000     2.360000000
O    -6.005000000     0.602000000    -2.386000000
H    -6.428000000     0.592000000    -1.527000000
H    -5.458000000     1.388000000    -2.374000000
O    -0.894000000     3.980000000    -2.666000000
H    -1.128000000     3.053000000    -2.613000000
H    -1.511000000     4.417000000    -2.079000000
O    -0.917000000    -6.791000000    -0.364000000
H    -1.449000000    -6.124000000    -0.798000000
H    -1.096000000    -7.595000000    -0.851000000
O     1.541000000     0.897000000     6.853000000
H     1.867000000     0.678000000     7.726000000
H     2.219000000     1.460000000     6.479000000
O     4.134000000     2.654000000     1.592000000
H     3.336000000     2.819000000     2.093000000
H     4.444000000     1.805000000     1.908000000
O    -6.419000000    -3.315000000    -2.770000000
H    -7.193000000    -3.315000000    -3.333000000
H    -5.867000000    -2.616000000    -3.122000000
O     1.698000000    -4.244000000     4.342000000
H     1.585000000    -5.070000000     4.814000000
H     0.807000000    -3.925000000     4.202000000
O    -0.758000000    -5.677000000     2.144000000
H    -0.634000000    -6.212000000     1.360000000
H    -0.993000000    -6.305000000     2.828000000
O    -4.345000000    -0.466000000     0.752000000
H    -4.510000000    -1.280000000     0.277000000
H    -3.544000000    -0.635000000     1.247000000
O    -4.912000000     2.407000000     0.965000000
H    -4.609000000     1.564000000     0.627000000
H    -5.466000000     2.760000000     0.269000000
O    -4.536000000    -5.963000000    -0.698000000
H    -4.106000000    -6.796000000    -0.892000000
H    -3.862000000    -5.302000000    -0.858000000
O     2.621000000    -4.363000000     1.262000000
H     1.969000000    -3.936000000     1.817000000
H     2.145000000    -4.585000000     0.461000000
O    -3.745000000     2.206000000    -1.637000000
H    -3.074000000     1.904000000    -2.250000000
H    -3.489000000     3.103000000    -1.425000000
O     2.270000000     3.935000000     3.393000000
H     1.330000000     3.928000000     3.216000000
H     2.590000000     4.725000000     2.958000000
O     1.415000000     1.219000000    -4.530000000
H     1.135000000     1.955000000    -5.073000000
H     0.850000000     1.261000000    -3.758000000
O     4.318000000    -2.872000000     4.179000000
H     3.563000000    -3.354000000     4.517000000
H     4.117000000    -1.954000000     4.358000000
O    -0.642000000    -2.161000000    -5.327000000
H    -0.805000000    -1.613000000    -4.559000000
H    -0.506000000    -1.538000000    -6.040000000
O    -0.674000000     6.243000000    -0.528000000
H    -0.458000000     6.139000000     0.398000000
H     0.163000000     6.139000000    -0.982000000
O    -1.881000000     1.458000000     5.058000000
H    -1.602000000     0.926000000     5.803000000
H    -1.606000000     2.347000000     5.282000000
O    -3.975000000     1.546000000    -4.684000000
H    -3.088000000     1.416000000    -4.348000000
H    -4.001000000     1.036000000    -5.494000000
O    -0.200000000    -5.796000000    -3.712000000
H    -1.086000000    -5.504000000    -3.928000000
H     0.370000000    -5.254000000    -4.257000000
