161
-3023.32293
C     0.396000000     1.472000000     0.059000000
H     0.522000000     2.552000000     0.031000000
C    -0.883000000     0.963000000    -0.176000000
H    -1.726000000     1.640000000    -0.288000000
C    -1.129000000    -0.404000000    -0.262000000
C    -2.476000000    -0.976000000    -0.552000000
H    -2.702000000    -0.597000000    -1.551000000
H    -2.509000000    -2.066000000    -0.597000000
H    -3.214000000    -0.850000000     0.243000000
C    -0.077000000    -1.298000000    -0.023000000
H    -0.189000000    -2.379000000    -0.023000000
C     1.201000000    -0.802000000     0.171000000
H     1.935000000    -1.593000000     0.297000000
C     1.444000000     0.552000000     0.294000000
C     2.770000000     1.080000000     0.729000000
O     3.766000000     0.456000000     0.722000000
O     2.865000000     2.251000000     0.928000000
O     8.199000000     0.878000000    -1.882000000
H     7.513000000     1.208000000    -1.302000000
H     8.328000000    -0.030000000    -1.608000000
O    -1.263000000    -6.051000000     1.896000000
H    -2.018000000    -6.387000000     2.379000000
H    -1.249000000    -6.564000000     1.087000000
O     5.639000000     3.729000000     4.748000000
H     5.682000000     2.779000000     4.642000000
H     5.336000000     3.856000000     5.647000000
O     4.050000000     4.072000000    -0.961000000
H     3.494000000     4.263000000    -1.717000000
H     3.441000000     3.771000000    -0.286000000
O     7.309000000    -0.954000000     2.631000000
H     7.939000000    -0.367000000     2.213000000
H     6.532000000    -0.412000000     2.770000000
O     3.253000000    -2.347000000    -3.247000000
H     2.947000000    -1.551000000    -3.682000000
H     3.620000000    -2.041000000    -2.417000000
O     0.180000000     3.479000000    -2.939000000
H    -0.453000000     3.690000000    -2.253000000
H     0.931000000     4.043000000    -2.754000000
O     6.400000000    -2.807000000     0.046000000
H     6.459000000    -3.706000000     0.370000000
H     7.173000000    -2.372000000     0.405000000
O     1.494000000     2.623000000    -5.338000000
H     1.855000000     3.423000000    -5.717000000
H     1.039000000     2.916000000    -4.548000000
O    -5.893000000    -4.437000000    -2.691000000
H    -5.944000000    -4.646000000    -3.624000000
H    -6.250000000    -3.551000000    -2.624000000
O     2.014000000     0.334000000     4.173000000
H     1.630000000     0.643000000     4.994000000
H     1.525000000    -0.463000000     3.965000000
O     5.931000000     1.005000000     5.649000000
H     5.780000000     0.436000000     4.894000000
H     5.134000000     0.925000000     6.172000000
O    -4.400000000    -1.798000000    -4.942000000
H    -4.073000000    -2.558000000    -4.460000000
H    -4.906000000    -2.171000000    -5.663000000
O    -5.780000000    -4.177000000     1.151000000
H    -5.371000000    -4.467000000     1.967000000
H    -5.047000000    -4.037000000     0.552000000
O     7.914000000     1.244000000     1.108000000
H     8.170000000     2.045000000     0.650000000
H     6.966000000     1.191000000     0.987000000
O    -2.300000000    -1.905000000     2.636000000
H    -2.476000000    -2.688000000     3.157000000
H    -2.347000000    -2.206000000     1.728000000
O    -2.858000000    -4.171000000    -3.942000000
H    -2.086000000    -4.232000000    -4.504000000
H    -2.505000000    -4.131000000    -3.053000000
O     2.216000000     5.205000000    -2.766000000
H     2.109000000     6.120000000    -2.507000000
H     2.338000000     5.238000000    -3.715000000
O    -1.234000000     4.787000000     0.992000000
H    -0.389000000     4.994000000     0.593000000
H    -1.513000000     3.981000000     0.557000000
O    -4.497000000     2.122000000     1.244000000
H    -4.385000000     1.786000000     0.355000000
H    -3.942000000     1.560000000     1.785000000
O    -7.115000000    -2.091000000    -3.557000000
H    -7.622000000    -1.422000000    -3.096000000
H    -6.453000000    -1.599000000    -4.041000000
O    -2.341000000     4.278000000    -1.674000000
H    -2.853000000     5.082000000    -1.762000000
H    -2.948000000     3.579000000    -1.919000000
O    -2.241000000     1.745000000    -3.842000000
H    -1.939000000     1.109000000    -4.490000000
H    -1.443000000     2.038000000    -3.404000000
O     1.497000000     5.242000000     0.756000000
H     1.656000000     5.984000000     0.172000000
H     2.191000000     5.301000000     1.412000000
O    -2.777000000    -4.032000000     0.707000000
H    -2.310000000    -4.745000000     1.142000000
H    -2.685000000    -4.221000000    -0.227000000
O    -2.134000000    -0.443000000    -5.902000000
H    -2.782000000    -0.710000000    -5.250000000
H    -2.646000000    -0.278000000    -6.694000000
O    -2.332000000     1.240000000     2.748000000
H    -2.005000000     0.369000000     2.971000000
H    -1.603000000     1.660000000     2.290000000
O     0.388000000     6.504000000     3.061000000
H     0.351000000     5.905000000     2.316000000
H     0.509000000     5.934000000     3.821000000
O     4.744000000     0.052000000     3.301000000
H     4.540000000     0.203000000     2.378000000
H     3.927000000     0.245000000     3.762000000
O     5.680000000     1.905000000    -0.599000000
H     4.944000000     1.451000000    -0.189000000
H     5.311000000     2.734000000    -0.903000000
O    -6.618000000     0.035000000    -0.177000000
H    -6.841000000     0.197000000    -1.093000000
H    -5.837000000     0.566000000    -0.023000000
O     3.608000000    -4.208000000     3.149000000
H     3.205000000    -4.545000000     2.348000000
H     3.331000000    -4.820000000     3.831000000
O     4.619000000    -1.114000000    -1.097000000
H     5.231000000    -1.699000000    -0.650000000
H     4.320000000    -0.514000000    -0.414000000
O    -4.542000000     4.005000000     3.384000000
H    -4.207000000     3.266000000     2.876000000
H    -4.344000000     4.773000000     2.849000000
O     0.157000000    -2.564000000    -2.830000000
H     0.593000000    -1.944000000    -3.415000000
H     0.516000000    -2.368000000    -1.964000000
O    -1.516000000    -4.293000000    -1.719000000
H    -0.875000000    -3.672000000    -2.065000000
H    -1.163000000    -5.153000000    -1.949000000
O    -4.391000000     2.083000000    -1.592000000
H    -5.220000000     2.493000000    -1.840000000
H    -4.165000000     1.530000000    -2.339000000
O    -4.058000000     5.959000000     1.553000000
H    -4.103000000     6.908000000     1.441000000
H    -3.225000000     5.710000000     1.150000000
O     3.291000000     4.315000000     2.488000000
H     3.231000000     3.610000000     1.844000000
H     3.998000000     4.046000000     3.073000000
O     0.246000000    -1.891000000     3.767000000
H     0.612000000    -2.543000000     3.170000000
H    -0.702000000    -2.003000000     3.692000000
O    -7.223000000    -0.932000000     2.475000000
H    -7.022000000    -1.856000000     2.325000000
H    -6.952000000    -0.494000000     1.668000000
O     5.559000000     6.316000000    -0.081000000
H     6.245000000     6.337000000    -0.749000000
H     5.064000000     5.519000000    -0.270000000
O     0.604000000    -4.079000000     2.218000000
H     1.081000000    -3.981000000     1.393000000
H    -0.179000000    -4.577000000     1.984000000
O     0.490000000     2.555000000     3.176000000
H     0.854000000     1.769000000     3.583000000
H     1.079000000     2.740000000     2.445000000
O     1.966000000    -4.815000000    -0.170000000
H     2.130000000    -5.756000000    -0.227000000
H     2.405000000    -4.448000000    -0.936000000
O     1.847000000     0.155000000    -3.231000000
H     1.910000000     1.065000000    -3.521000000
H     1.413000000     0.204000000    -2.379000000
O     5.376000000     0.848000000    -3.566000000
H     5.798000000     1.707000000    -3.549000000
H     5.240000000     0.629000000    -2.645000000
O    -4.459000000     3.275000000    -4.668000000
H    -3.646000000     2.803000000    -4.489000000
H    -4.406000000     4.060000000    -4.123000000
