161
-3073.72703
C     0.180000000     1.418000000     0.539000000
H     0.321000000     2.418000000     0.940000000
C    -0.075000000     1.085000000    -0.802000000
H    -0.235000000     1.903000000    -1.499000000
C    -0.177000000    -0.246000000    -1.201000000
C    -0.327000000    -0.703000000    -2.609000000
H    -0.880000000    -1.644000000    -2.618000000
H    -0.996000000    -0.085000000    -3.210000000
H     0.673000000    -0.806000000    -3.037000000
C    -0.118000000    -1.203000000    -0.259000000
H    -0.149000000    -2.229000000    -0.616000000
C     0.039000000    -0.936000000     1.098000000
H     0.171000000    -1.747000000     1.810000000
C     0.237000000     0.394000000     1.500000000
C     0.456000000     0.697000000     2.917000000
O     0.263000000    -0.167000000     3.786000000
O     0.619000000     1.850000000     3.267000000
O     3.977000000     2.280000000     1.215000000
H     3.254000000     2.874000000     1.416000000
H     4.674000000     2.851000000     0.891000000
O    -2.892000000     1.848000000     2.183000000
H    -2.968000000     1.167000000     1.515000000
H    -2.532000000     2.602000000     1.717000000
O     1.969000000     4.555000000     3.137000000
H     1.030000000     4.436000000     3.278000000
H     2.379000000     3.878000000     3.675000000
O     4.397000000     0.011000000     3.231000000
H     4.297000000     0.695000000     2.569000000
H     5.343000000    -0.074000000     3.347000000
O     1.973000000    -4.582000000     2.848000000
H     2.916000000    -4.742000000     2.819000000
H     1.895000000    -3.648000000     3.042000000
O     4.978000000    -3.166000000    -3.465000000
H     4.411000000    -2.490000000    -3.837000000
H     4.397000000    -3.913000000    -3.322000000
O     3.002000000     2.986000000    -1.811000000
H     3.548000000     3.727000000    -2.075000000
H     2.608000000     3.262000000    -0.984000000
O     1.868000000     4.188000000     0.526000000
H     1.802000000     4.214000000     1.480000000
H     1.212000000     4.816000000     0.223000000
O    -3.636000000     4.129000000    -2.053000000
H    -4.180000000     3.720000000    -1.379000000
H    -4.163000000     4.079000000    -2.850000000
O     4.515000000    -0.921000000    -5.028000000
H     4.184000000    -0.045000000    -4.829000000
H     5.465000000    -0.814000000    -5.069000000
O    -2.057000000     3.829000000     0.442000000
H    -2.587000000     3.766000000    -0.352000000
H    -1.250000000     4.259000000     0.158000000
O    -2.333000000    -4.474000000     3.347000000
H    -2.932000000    -4.885000000     2.725000000
H    -2.828000000    -3.739000000     3.708000000
O    -4.056000000    -2.023000000    -5.919000000
H    -3.986000000    -1.635000000    -5.047000000
H    -3.167000000    -1.980000000    -6.273000000
O    -4.710000000     0.425000000    -1.478000000
H    -5.270000000    -0.323000000    -1.269000000
H    -3.959000000     0.334000000    -0.891000000
O     0.008000000    -0.936000000     6.736000000
H     0.038000000    -0.813000000     5.787000000
H     0.671000000    -0.334000000     7.077000000
O    -3.314000000    -5.046000000    -1.848000000
H    -3.447000000    -5.991000000    -1.926000000
H    -2.366000000    -4.944000000    -1.765000000
O    -0.395000000    -3.475000000    -5.409000000
H    -0.807000000    -3.373000000    -4.551000000
H    -0.513000000    -4.400000000    -5.624000000
O     2.614000000    -2.717000000    -1.197000000
H     2.547000000    -1.808000000    -0.906000000
H     2.285000000    -2.705000000    -2.096000000
O     3.892000000     0.092000000     6.425000000
H     3.910000000    -0.782000000     6.036000000
H     4.695000000     0.140000000     6.944000000
O    -0.193000000    -3.470000000     5.363000000
H    -0.688000000    -3.148000000     4.610000000
H    -0.368000000    -2.832000000     6.055000000
O    -0.510000000     6.486000000     4.724000000
H    -0.839000000     6.033000000     3.947000000
H     0.307000000     6.892000000     4.436000000
O    -3.726000000     4.254000000     3.584000000
H    -3.338000000     4.374000000     4.451000000
H    -3.260000000     3.504000000     3.215000000
O    -2.969000000     2.565000000     5.800000000
H    -3.493000000     2.944000000     6.505000000
H    -2.089000000     2.488000000     6.170000000
O     1.215000000    -0.264000000    -5.728000000
H     1.565000000    -0.208000000    -6.616000000
H     1.676000000     0.422000000    -5.245000000
O    -0.245000000     2.862000000     5.882000000
H    -0.404000000     3.534000000     5.218000000
H     0.271000000     2.195000000     5.429000000
O    -0.821000000     4.352000000    -3.517000000
H    -1.036000000     3.525000000    -3.949000000
H    -1.664000000     4.794000000    -3.412000000
O    -3.628000000     0.886000000    -4.109000000
H    -3.866000000     0.939000000    -3.183000000
H    -2.814000000     1.384000000    -4.176000000
O     2.420000000    -1.998000000     3.771000000
H     1.720000000    -1.420000000     4.075000000
H     3.132000000    -1.406000000     3.529000000
O    -1.596000000    -1.747000000    -7.377000000
H    -0.888000000    -1.795000000    -8.020000000
H    -1.347000000    -2.376000000    -6.700000000
O    -2.946000000    -2.923000000    -0.189000000
H    -3.259000000    -3.448000000    -0.926000000
H    -2.002000000    -3.081000000    -0.166000000
O     1.929000000    -5.885000000    -0.096000000
H     2.071000000    -6.077000000    -1.022000000
H     2.475000000    -5.118000000     0.077000000
O     4.459000000    -4.493000000     0.031000000
H     5.065000000    -4.527000000    -0.709000000
H     3.760000000    -3.906000000    -0.258000000
O     1.568000000     0.976000000     7.939000000
H     1.031000000     1.764000000     7.851000000
H     2.366000000     1.174000000     7.448000000
O    -1.491000000    -6.751000000     0.507000000
H    -0.721000000    -7.128000000     0.933000000
H    -1.304000000    -5.814000000     0.460000000
O    -1.882000000     0.905000000    -7.752000000
H    -2.803000000     0.739000000    -7.951000000
H    -1.553000000     0.067000000    -7.427000000
O    -3.476000000     0.408000000     4.264000000
H    -3.481000000     0.871000000     3.426000000
H    -3.187000000     1.064000000     4.898000000
O     3.202000000     1.513000000    -4.275000000
H     2.920000000     1.902000000    -3.446000000
H     3.918000000     2.075000000    -4.572000000
O     2.862000000     0.421000000    -0.627000000
H     3.164000000     0.852000000     0.172000000
H     2.600000000     1.139000000    -1.203000000
O    -2.928000000    -0.178000000     0.512000000
H    -1.976000000    -0.184000000     0.413000000
H    -3.183000000    -1.097000000     0.433000000
O     2.884000000     2.321000000     4.778000000
H     2.222000000     1.818000000     4.304000000
H     3.453000000     1.658000000     5.171000000
O    -0.529000000    -4.261000000     1.329000000
H     0.309000000    -4.301000000     1.788000000
H    -1.100000000    -3.765000000     1.916000000
O    -0.762000000     3.958000000     3.303000000
H    -1.116000000     4.256000000     2.466000000
H    -0.371000000     3.107000000     3.109000000
O     1.999000000     4.330000000     7.695000000
H     2.793000000     4.831000000     7.882000000
H     2.133000000     3.988000000     6.812000000
O    -0.478000000    -4.589000000    -1.666000000
H     0.166000000    -4.682000000    -2.368000000
H     0.047000000    -4.476000000    -0.873000000
O     2.036000000    -2.791000000    -3.838000000
H     1.877000000    -2.998000000    -4.759000000
H     1.957000000    -1.838000000    -3.790000000
O    -0.354000000     5.609000000    -0.959000000
H    -0.444000000     5.166000000    -1.803000000
H     0.459000000     6.108000000    -1.035000000
O    -0.959000000     1.674000000    -4.876000000
H    -0.391000000     0.936000000    -4.654000000
H    -1.095000000     1.595000000    -5.820000000
O    -1.846000000    -1.782000000     4.007000000
H    -1.217000000    -1.140000000     3.678000000
H    -2.649000000    -1.279000000     4.149000000
