161
-3066.37250
C    -0.606000000     0.890000000     0.954000000
H    -0.981000000     1.664000000     1.619000000
C    -0.362000000     1.224000000    -0.404000000
H    -0.667000000     2.167000000    -0.850000000
C     0.117000000     0.219000000    -1.213000000
C     0.486000000     0.556000000    -2.623000000
H    -0.135000000     1.370000000    -3.003000000
H     1.536000000     0.849000000    -2.686000000
H     0.268000000    -0.241000000    -3.337000000
C     0.514000000    -0.951000000    -0.623000000
H     1.024000000    -1.708000000    -1.214000000
C     0.232000000    -1.328000000     0.693000000
H     0.384000000    -2.350000000     1.031000000
C    -0.376000000    -0.359000000     1.464000000
C    -0.429000000    -0.576000000     3.041000000
O    -0.009000000    -1.645000000     3.398000000
O    -0.988000000     0.220000000     3.758000000
O     4.158000000    -3.765000000     1.113000000
H     3.610000000    -4.247000000     0.494000000
H     3.602000000    -3.643000000     1.882000000
O    -4.582000000    -1.358000000     1.537000000
H    -4.526000000    -0.891000000     2.371000000
H    -5.509000000    -1.319000000     1.303000000
O     0.578000000     5.650000000     2.770000000
H     0.882000000     4.745000000     2.836000000
H     0.316000000     5.880000000     3.662000000
O    -3.574000000     0.866000000    -0.549000000
H    -2.889000000     0.917000000     0.118000000
H    -4.336000000     1.276000000    -0.141000000
O    -1.924000000    -3.493000000    -2.477000000
H    -2.353000000    -3.144000000    -1.696000000
H    -1.360000000    -4.193000000    -2.149000000
O    -5.727000000     1.883000000     0.649000000
H    -5.029000000     1.781000000     1.296000000
H    -6.519000000     1.596000000     1.104000000
O    -0.844000000     5.358000000    -2.251000000
H    -1.736000000     5.016000000    -2.315000000
H    -0.670000000     5.400000000    -1.310000000
O     2.686000000     0.954000000     5.153000000
H     3.603000000     0.781000000     4.941000000
H     2.542000000     0.501000000     5.983000000
O    -0.909000000     4.804000000     0.528000000
H    -1.590000000     4.209000000     0.839000000
H    -0.682000000     5.331000000     1.294000000
O    -4.344000000    -1.115000000     4.616000000
H    -3.442000000    -0.961000000     4.897000000
H    -4.342000000    -2.012000000     4.284000000
O    -2.606000000    -2.511000000    -0.012000000
H    -1.792000000    -2.039000000     0.164000000
H    -3.223000000    -2.174000000     0.637000000
O    -4.659000000    -1.883000000    -2.154000000
H    -4.008000000    -1.518000000    -1.555000000
H    -4.201000000    -2.594000000    -2.602000000
O    -5.305000000     1.766000000     4.658000000
H    -5.933000000     1.188000000     5.092000000
H    -5.686000000     2.640000000     4.744000000
O     1.150000000     4.591000000    -3.818000000
H     1.946000000     4.385000000    -3.327000000
H     0.463000000     4.633000000    -3.153000000
O     1.639000000     3.945000000     0.315000000
H     0.682000000     3.980000000     0.314000000
H     1.911000000     4.839000000     0.520000000
O    -0.274000000    -5.322000000    -1.149000000
H    -0.790000000    -5.392000000    -0.346000000
H     0.616000000    -5.139000000    -0.847000000
O     0.279000000     1.571000000    -7.270000000
H     0.294000000     0.893000000    -7.946000000
H    -0.374000000     2.200000000    -7.577000000
O    -4.484000000     0.978000000    -6.264000000
H    -3.652000000     0.871000000    -5.804000000
H    -5.081000000     1.325000000    -5.602000000
O     2.815000000    -4.674000000    -1.169000000
H     3.536000000    -4.338000000    -1.701000000
H     2.863000000    -5.625000000    -1.273000000
O     1.596000000    -1.748000000     5.524000000
H     1.376000000    -1.390000000     6.384000000
H     0.906000000    -1.422000000     4.946000000
O    -1.687000000    -4.730000000     6.426000000
H    -1.389000000    -4.469000000     5.554000000
H    -0.968000000    -4.483000000     7.008000000
O     1.060000000     2.662000000     3.253000000
H     1.654000000     1.919000000     3.361000000
H     0.376000000     2.518000000     3.908000000
O    -0.887000000    -1.363000000     8.744000000
H    -1.015000000    -1.296000000     7.797000000
H    -1.752000000    -1.189000000     9.115000000
O    -1.217000000    -1.109000000     6.036000000
H    -1.351000000    -1.990000000     5.686000000
H    -1.151000000    -0.551000000     5.261000000
O     1.097000000    -6.068000000     4.086000000
H     1.597000000    -5.581000000     3.431000000
H     1.762000000    -6.515000000     4.611000000
O     3.192000000     4.246000000    -2.032000000
H     2.708000000     3.947000000    -1.261000000
H     4.112000000     4.138000000    -1.793000000
O     4.443000000     0.125000000    -1.960000000
H     4.849000000    -0.540000000    -1.405000000
H     3.658000000     0.390000000    -1.481000000
O    -0.230000000     1.929000000     5.543000000
H     0.589000000     1.565000000     5.879000000
H    -0.646000000     1.199000000     5.085000000
O     2.963000000     3.382000000    -5.597000000
H     3.514000000     2.910000000    -4.973000000
H     2.189000000     3.631000000    -5.092000000
O    -3.294000000     4.425000000    -2.792000000
H    -3.915000000     4.211000000    -2.096000000
H    -3.236000000     3.626000000    -3.315000000
O    -3.674000000     1.722000000    -3.178000000
H    -3.742000000     1.294000000    -2.324000000
H    -3.126000000     1.133000000    -3.698000000
O    -3.420000000     1.952000000     6.932000000
H    -3.118000000     1.880000000     6.026000000
H    -2.627000000     2.140000000     7.434000000
O     0.089000000    -3.365000000    -6.563000000
H     0.847000000    -3.853000000    -6.240000000
H    -0.388000000    -3.994000000    -7.103000000
O     3.089000000     0.620000000    -6.747000000
H     2.202000000     0.962000000    -6.860000000
H     3.029000000     0.044000000    -5.985000000
O    -3.120000000     3.909000000     1.706000000
H    -3.142000000     2.976000000     1.918000000
H    -3.288000000     4.348000000     2.540000000
O     4.606000000    -4.338000000    -2.989000000
H     3.913000000    -4.317000000    -3.649000000
H     5.244000000    -3.692000000    -3.291000000
O     2.708000000     1.392000000     0.275000000
H     2.340000000     2.271000000     0.370000000
H     2.027000000     0.810000000     0.610000000
O    -4.772000000     4.305000000    -0.240000000
H    -5.125000000     3.450000000     0.006000000
H    -4.087000000     4.476000000     0.407000000
O     5.457000000    -1.217000000     0.494000000
H     5.557000000    -0.674000000     1.277000000
H     4.959000000    -1.978000000     0.793000000
O    -1.810000000    -5.086000000     1.130000000
H    -1.773000000    -4.508000000     1.892000000
H    -2.486000000    -4.702000000     0.571000000
O     2.281000000    -3.477000000     3.070000000
H     1.527000000    -2.901000000     3.196000000
H     2.752000000    -3.440000000     3.902000000
O     4.450000000    -3.098000000     4.976000000
H     3.822000000    -2.537000000     5.431000000
H     5.282000000    -2.938000000     5.423000000
O     4.533000000     2.120000000    -3.773000000
H     4.427000000     1.390000000    -3.163000000
H     4.888000000     2.829000000    -3.238000000
O    -3.461000000     1.445000000     2.432000000
H    -4.123000000     1.312000000     3.110000000
H    -2.653000000     1.103000000     2.815000000
O    -1.128000000     3.006000000     7.767000000
H    -0.446000000     2.872000000     7.109000000
H    -0.828000000     2.509000000     8.528000000
O    -1.792000000     0.648000000    -5.326000000
H    -1.478000000    -0.174000000    -4.949000000
H    -1.020000000     1.031000000    -5.744000000
O    -1.193000000    -1.977000000    -4.503000000
H    -0.587000000    -2.553000000    -4.969000000
H    -1.523000000    -2.510000000    -3.780000000
O    -0.866000000    -4.081000000     3.975000000
H    -0.081000000    -4.624000000     4.052000000
H    -0.532000000    -3.186000000     3.907000000
