161
-3050.20956
C    -0.476000000     0.379000000     1.349000000
H    -0.930000000     0.832000000     2.227000000
C    -0.295000000     1.287000000     0.273000000
H    -0.459000000     2.349000000     0.435000000
C     0.198000000     0.792000000    -0.958000000
C     0.344000000     1.742000000    -2.151000000
H     0.250000000     1.273000000    -3.133000000
H    -0.444000000     2.497000000    -2.108000000
H     1.342000000     2.179000000    -2.076000000
C     0.478000000    -0.603000000    -1.097000000
H     0.774000000    -0.928000000    -2.092000000
C     0.260000000    -1.511000000    -0.044000000
H     0.597000000    -2.544000000    -0.100000000
C    -0.208000000    -1.035000000     1.197000000
C    -0.394000000    -1.981000000     2.386000000
O    -0.078000000    -3.152000000     2.447000000
O    -0.966000000    -1.578000000     3.441000000
O     4.955000000    -0.966000000     0.972000000
H     4.367000000    -1.432000000     0.377000000
H     5.759000000    -0.843000000     0.467000000
O     2.098000000    -6.291000000     4.315000000
H     1.545000000    -6.350000000     3.535000000
H     1.589000000    -5.763000000     4.930000000
O    -3.483000000    -2.544000000     2.031000000
H    -2.787000000    -2.476000000     2.685000000
H    -4.278000000    -2.292000000     2.501000000
O    -4.522000000    -5.628000000     4.445000000
H    -3.892000000    -4.925000000     4.600000000
H    -4.368000000    -5.893000000     3.538000000
O     1.075000000     3.765000000     2.579000000
H     0.185000000     4.018000000     2.823000000
H     1.111000000     3.898000000     1.631000000
O    -4.198000000     1.280000000    -1.590000000
H    -3.711000000     1.794000000    -0.945000000
H    -4.118000000     0.376000000    -1.286000000
O    -1.681000000    -4.098000000    -4.498000000
H    -1.559000000    -4.783000000    -3.841000000
H    -1.648000000    -3.280000000    -4.002000000
O     1.257000000     7.289000000     0.295000000
H     1.241000000     6.424000000     0.706000000
H     1.608000000     7.131000000    -0.582000000
O    -4.019000000     1.633000000     2.212000000
H    -4.714000000     2.178000000     2.582000000
H    -4.465000000     1.078000000     1.572000000
O     1.183000000     5.772000000    -5.010000000
H     0.243000000     5.865000000    -4.853000000
H     1.247000000     5.111000000    -5.698000000
O     4.497000000    -0.335000000    -4.431000000
H     4.167000000    -0.137000000    -3.555000000
H     4.935000000     0.469000000    -4.710000000
O     1.964000000     1.392000000     3.646000000
H     1.493000000     2.192000000     3.414000000
H     2.633000000     1.302000000     2.968000000
O    -1.991000000     4.592000000    -1.784000000
H    -2.493000000     4.208000000    -1.065000000
H    -2.365000000     5.466000000    -1.896000000
O    -4.548000000    -1.738000000     5.783000000
H    -3.918000000    -2.262000000     5.288000000
H    -5.316000000    -2.303000000     5.868000000
O    -3.901000000    -1.505000000    -0.634000000
H    -4.497000000    -2.247000000    -0.738000000
H    -3.494000000    -1.644000000     0.221000000
O    -1.903000000    -1.878000000    -2.608000000
H    -1.229000000    -1.865000000    -1.928000000
H    -2.724000000    -1.989000000    -2.128000000
O     0.405000000    -3.790000000     5.109000000
H     0.122000000    -3.283000000     4.348000000
H     1.328000000    -3.564000000     5.218000000
O     0.542000000     4.450000000    -0.260000000
H     0.650000000     3.535000000    -0.520000000
H    -0.240000000     4.741000000    -0.729000000
O     4.037000000     1.697000000     1.820000000
H     3.706000000     2.060000000     0.999000000
H     4.511000000     0.907000000     1.559000000
O    -1.507000000    -5.378000000    -1.712000000
H    -1.581000000    -5.253000000    -0.766000000
H    -0.572000000    -5.523000000    -1.862000000
O     1.625000000    -4.668000000    -1.159000000
H     2.185000000    -4.576000000    -1.930000000
H     1.288000000    -5.563000000    -1.214000000
O     3.374000000    -2.592000000     5.503000000
H     4.136000000    -2.022000000     5.396000000
H     3.406000000    -3.180000000     4.748000000
O    -1.301000000    -5.791000000     5.558000000
H    -0.773000000    -6.025000000     6.322000000
H    -0.702000000    -5.302000000     4.993000000
O    -1.874000000     4.047000000     2.202000000
H    -1.735000000     3.170000000     2.559000000
H    -2.526000000     3.924000000     1.512000000
O    -2.389000000     0.774000000     6.966000000
H    -2.148000000     0.651000000     6.048000000
H    -2.456000000    -0.115000000     7.316000000
O    -2.592000000    -3.429000000     4.541000000
H    -2.304000000    -4.090000000     5.170000000
H    -1.794000000    -2.950000000     4.315000000
O     4.096000000    -2.440000000    -1.308000000
H     4.806000000    -3.045000000    -1.094000000
H     3.319000000    -2.996000000    -1.370000000
O     4.200000000     2.938000000    -3.111000000
H     3.635000000     3.710000000    -3.147000000
H     4.142000000     2.558000000    -3.988000000
O     0.247000000    -0.106000000     5.215000000
H     0.827000000     0.578000000     4.880000000
H    -0.069000000    -0.556000000     4.432000000
O     1.681000000     3.698000000    -6.815000000
H     2.054000000     2.817000000    -6.853000000
H     1.175000000     3.779000000    -7.624000000
O    -1.449000000     5.442000000    -4.308000000
H    -1.350000000     4.954000000    -3.491000000
H    -2.155000000     4.992000000    -4.772000000
O    -3.644000000     3.385000000    -4.319000000
H    -3.599000000     2.888000000    -3.502000000
H    -4.508000000     3.182000000    -4.677000000
O    -1.739000000    -0.229000000    -4.711000000
H    -2.207000000    -0.779000000    -4.082000000
H    -1.077000000    -0.809000000    -5.090000000
O    -2.251000000     6.595000000     3.223000000
H    -1.869000000     5.825000000     2.802000000
H    -2.409000000     7.207000000     2.505000000
O    -3.703000000     4.090000000     0.119000000
H    -3.704000000     5.040000000     0.005000000
H    -4.554000000     3.894000000     0.509000000
O     2.333000000    -1.818000000    -5.364000000
H     2.279000000    -2.574000000    -4.779000000
H     2.845000000    -1.174000000    -4.876000000
O     3.416000000    -0.082000000    -2.020000000
H     2.630000000     0.244000000    -1.581000000
H     3.636000000    -0.887000000    -1.551000000
O     3.574000000    -5.248000000     0.907000000
H     3.684000000    -6.198000000     0.958000000
H     2.818000000    -5.125000000     0.334000000
O     0.482000000    -1.533000000     7.544000000
H     1.398000000    -1.798000000     7.464000000
H     0.329000000    -0.968000000     6.786000000
O    -0.217000000    -2.021000000    -6.207000000
H    -0.451000000    -2.936000000    -6.358000000
H     0.704000000    -2.048000000    -5.947000000
O    -2.310000000    -4.926000000     0.878000000
H    -2.423000000    -4.071000000     1.294000000
H    -3.185000000    -5.314000000     0.888000000
O     3.790000000    -3.041000000     2.639000000
H     3.861000000    -3.773000000     2.026000000
H     4.068000000    -2.278000000     2.133000000
O     3.618000000     2.964000000    -0.436000000
H     3.723000000     2.705000000    -1.352000000
H     4.464000000     3.341000000    -0.196000000
O    -2.408000000     0.613000000     4.323000000
H    -2.929000000     0.959000000     3.599000000
H    -1.950000000    -0.140000000     3.951000000
O    -0.751000000     3.164000000     5.406000000
H    -0.039000000     2.950000000     6.009000000
H    -1.227000000     2.341000000     5.297000000
O    -1.818000000     2.296000000    -6.114000000
H    -1.678000000     1.408000000    -5.785000000
H    -2.481000000     2.666000000    -5.531000000
O     0.233000000    -5.681000000     1.832000000
H     0.385000000    -4.861000000     2.301000000
H    -0.669000000    -5.614000000     1.518000000
O     2.628000000    -4.409000000    -3.834000000
H     1.968000000    -5.039000000    -4.123000000
H     3.328000000    -4.480000000    -4.483000000
