161
-3069.77280
C     0.939000000     0.124000000     1.129000000
H     1.632000000     0.193000000     1.964000000
C     0.804000000     1.073000000     0.085000000
H     1.444000000     1.951000000     0.051000000
C    -0.048000000     0.813000000    -0.967000000
C    -0.386000000     1.909000000    -1.942000000
H     0.574000000     2.257000000    -2.328000000
H    -1.040000000     1.667000000    -2.782000000
H    -0.823000000     2.682000000    -1.306000000
C    -0.716000000    -0.416000000    -0.958000000
H    -1.417000000    -0.589000000    -1.770000000
C    -0.580000000    -1.359000000     0.020000000
H    -1.175000000    -2.261000000    -0.097000000
C     0.180000000    -1.075000000     1.080000000
C     0.155000000    -2.008000000     2.312000000
O    -0.446000000    -3.064000000     2.218000000
O     0.903000000    -1.894000000     3.290000000
O    -5.802000000    -2.099000000    -1.348000000
H    -5.563000000    -1.462000000    -0.674000000
H    -5.845000000    -2.934000000    -0.883000000
O     4.065000000    -1.046000000     6.382000000
H     3.274000000    -0.868000000     5.874000000
H     4.156000000    -1.999000000     6.356000000
O     1.930000000     3.253000000     3.105000000
H     0.984000000     3.112000000     3.076000000
H     2.125000000     3.735000000     2.302000000
O    -4.379000000    -0.945000000    -3.737000000
H    -3.656000000    -1.572000000    -3.715000000
H    -4.847000000    -1.089000000    -2.914000000
O     0.536000000    -3.690000000    -4.288000000
H     0.423000000    -4.094000000    -5.148000000
H     0.401000000    -4.406000000    -3.667000000
O    -0.684000000     2.802000000     2.609000000
H    -0.932000000     2.195000000     1.912000000
H    -1.502000000     2.982000000     3.073000000
O    -3.540000000     4.372000000     0.710000000
H    -3.368000000     4.911000000    -0.062000000
H    -3.545000000     4.992000000     1.439000000
O    -3.041000000    -3.273000000     0.961000000
H    -3.575000000    -3.157000000     1.748000000
H    -2.144000000    -3.120000000     1.256000000
O    -1.198000000    -1.645000000    -6.675000000
H    -1.517000000    -2.181000000    -7.401000000
H    -1.555000000    -2.065000000    -5.892000000
O     0.296000000     1.397000000     6.192000000
H    -0.509000000     0.924000000     5.980000000
H     0.220000000     2.224000000     5.717000000
O     3.263000000    -3.185000000     0.491000000
H     3.641000000    -3.110000000     1.367000000
H     3.103000000    -2.280000000     0.222000000
O    -3.086000000     1.617000000     0.607000000
H    -3.124000000     2.571000000     0.536000000
H    -2.960000000     1.314000000    -0.292000000
O     5.415000000     2.937000000     2.234000000
H     5.306000000     2.431000000     1.430000000
H     5.498000000     2.278000000     2.923000000
O     0.583000000     4.626000000    -3.371000000
H     0.300000000     4.440000000    -4.266000000
H     1.413000000     4.157000000    -3.280000000
O    -4.068000000    -6.515000000     1.336000000
H    -3.259000000    -6.266000000     1.783000000
H    -4.716000000    -6.591000000     2.036000000
O    -0.981000000     3.405000000    -6.844000000
H    -0.154000000     3.126000000    -6.450000000
H    -1.572000000     3.525000000    -6.101000000
O     2.262000000    -7.095000000    -0.005000000
H     1.466000000    -7.304000000    -0.493000000
H     2.062000000    -6.271000000     0.439000000
O    -2.243000000    -2.808000000    -4.051000000
H    -1.298000000    -2.939000000    -4.129000000
H    -2.479000000    -3.241000000    -3.231000000
O    -3.194000000     0.138000000     3.018000000
H    -3.152000000     0.525000000     2.143000000
H    -3.995000000     0.496000000     3.400000000
O    -0.255000000     7.133000000    -2.221000000
H     0.241000000     6.350000000    -2.459000000
H     0.144000000     7.429000000    -1.402000000
O    -1.404000000    -0.355000000     4.939000000
H    -1.937000000    -0.128000000     4.177000000
H    -1.322000000    -1.308000000     4.898000000
O    -0.795000000     5.276000000     0.893000000
H    -0.587000000     4.655000000     1.591000000
H    -1.751000000     5.319000000     0.886000000
O    -0.046000000    -5.000000000    -2.096000000
H     0.518000000    -5.241000000    -1.361000000
H    -0.880000000    -4.763000000    -1.690000000
O    -0.650000000    -7.790000000     1.559000000
H    -1.030000000    -7.576000000     2.411000000
H    -0.161000000    -7.005000000     1.311000000
O    -4.840000000     4.755000000    -4.720000000
H    -4.841000000     5.661000000    -5.030000000
H    -3.913000000     4.526000000    -4.653000000
O     1.017000000    -4.762000000     4.379000000
H     1.257000000    -3.837000000     4.331000000
H     0.330000000    -4.866000000     3.721000000
O     2.527000000    -1.194000000    -1.303000000
H     1.875000000    -0.796000000    -0.726000000
H     2.066000000    -1.323000000    -2.132000000
O     1.597000000    -1.031000000     5.517000000
H     1.019000000    -0.293000000     5.707000000
H     1.293000000    -1.363000000     4.672000000
O     3.513000000     0.887000000     3.942000000
H     3.192000000     1.584000000     3.369000000
H     3.359000000     1.215000000     4.827000000
O     1.416000000     0.372000000    -5.733000000
H     0.507000000     0.074000000    -5.767000000
H     1.831000000    -0.039000000    -6.492000000
O    -3.601000000     1.955000000    -3.236000000
H    -4.523000000     2.144000000    -3.061000000
H    -3.613000000     1.126000000    -3.715000000
O    -5.354000000     0.159000000     0.386000000
H    -5.876000000     0.694000000    -0.212000000
H    -4.678000000     0.753000000     0.712000000
O     3.324000000     3.623000000    -3.202000000
H     3.515000000     3.620000000    -2.264000000
H     4.114000000     3.266000000    -3.608000000
O     1.912000000    -1.557000000    -3.882000000
H     1.639000000    -1.000000000    -4.611000000
H     1.439000000    -2.378000000    -4.018000000
O     1.060000000    -4.761000000     0.886000000
H     0.479000000    -4.199000000     1.399000000
H     1.857000000    -4.243000000     0.774000000
O     3.439000000    -1.328000000     2.567000000
H     3.704000000    -0.490000000     2.945000000
H     2.517000000    -1.418000000     2.807000000
O     1.505000000     3.273000000    -5.629000000
H     1.545000000     2.366000000    -5.933000000
H     2.226000000     3.348000000    -5.003000000
O    -2.295000000     4.081000000    -4.178000000
H    -2.654000000     3.414000000    -3.593000000
H    -1.749000000     4.626000000    -3.612000000
O    -1.915000000    -5.560000000     2.927000000
H    -1.713000000    -4.625000000     2.902000000
H    -1.969000000    -5.769000000     3.859000000
O     5.344000000    -0.803000000    -1.216000000
H     5.449000000    -1.570000000    -0.652000000
H     4.421000000    -0.568000000    -1.130000000
O     4.294000000     3.756000000    -0.734000000
H     4.775000000     2.955000000    -0.528000000
H     4.087000000     4.138000000     0.118000000
O     1.782000000    -3.070000000     7.463000000
H     1.749000000    -2.311000000     6.880000000
H     1.922000000    -2.698000000     8.333000000
O    -2.936000000     5.841000000    -1.517000000
H    -2.023000000     6.130000000    -1.504000000
H    -3.388000000     6.501000000    -2.042000000
O     2.139000000     5.166000000     1.355000000
H     1.252000000     5.340000000     1.038000000
H     2.670000000     5.866000000     0.977000000
O    -1.997000000    -2.890000000     4.413000000
H    -2.103000000    -3.463000000     5.172000000
H    -1.204000000    -3.208000000     3.982000000
O    -4.508000000    -2.603000000     3.138000000
H    -3.896000000    -2.740000000     3.861000000
H    -4.686000000    -1.662000000     3.150000000
O     6.435000000    -1.937000000     1.589000000
H     5.682000000    -1.514000000     2.002000000
H     6.848000000    -2.434000000     2.294000000
O    -2.816000000    -4.583000000    -1.350000000
H    -3.488000000    -5.242000000    -1.525000000
H    -3.080000000    -4.187000000    -0.519000000
