161
-3040.89418
C     1.160000000    -0.400000000     0.820000000
H     2.053000000    -0.640000000     1.391000000
C     1.120000000     0.754000000    -0.002000000
H     2.028000000     1.331000000    -0.156000000
C    -0.005000000     1.068000000    -0.709000000
C    -0.101000000     2.065000000    -1.784000000
H     0.471000000     1.743000000    -2.657000000
H    -1.149000000     2.179000000    -2.068000000
H     0.326000000     3.045000000    -1.560000000
C    -1.103000000     0.269000000    -0.551000000
H    -2.038000000     0.388000000    -1.092000000
C    -1.091000000    -0.855000000     0.318000000
H    -1.902000000    -1.577000000     0.364000000
C     0.056000000    -1.198000000     1.024000000
C     0.051000000    -2.391000000     2.000000000
O    -0.879000000    -3.159000000     1.942000000
O     1.006000000    -2.616000000     2.721000000
O     4.528000000    -5.837000000     3.049000000
H     4.127000000    -6.251000000     2.285000000
H     4.211000000    -4.934000000     3.026000000
O     2.798000000     0.335000000     5.518000000
H     3.114000000     1.055000000     4.972000000
H     1.947000000     0.106000000     5.145000000
O    -4.547000000    -0.972000000    -4.505000000
H    -4.805000000    -1.480000000    -3.735000000
H    -3.611000000    -1.146000000    -4.603000000
O    -5.776000000     2.295000000    -1.518000000
H    -6.548000000     2.225000000    -0.956000000
H    -5.043000000     2.376000000    -0.908000000
O     1.135000000     3.981000000     1.158000000
H     1.903000000     3.985000000     0.586000000
H     1.451000000     4.342000000     1.986000000
O    -3.491000000     2.584000000     0.175000000
H    -2.721000000     2.094000000     0.464000000
H    -3.850000000     2.961000000     0.977000000
O    -3.750000000    -3.845000000     1.477000000
H    -4.269000000    -3.962000000     2.273000000
H    -2.890000000    -3.566000000     1.791000000
O     2.528000000     6.707000000    -1.555000000
H     2.564000000     7.648000000    -1.384000000
H     1.853000000     6.612000000    -2.228000000
O    -1.533000000     1.919000000     4.516000000
H    -1.902000000     1.038000000     4.459000000
H    -1.479000000     2.215000000     3.607000000
O     2.665000000    -3.094000000    -2.088000000
H     2.529000000    -4.027000000    -2.254000000
H     1.841000000    -2.682000000    -2.349000000
O    -4.112000000    -0.574000000     1.841000000
H    -4.626000000     0.108000000     2.272000000
H    -4.662000000    -0.867000000     1.115000000
O     1.910000000    -0.760000000    -4.454000000
H     1.071000000    -0.850000000    -4.002000000
H     2.133000000    -1.650000000    -4.727000000
O    -1.130000000    -0.611000000     6.785000000
H    -0.523000000    -0.576000000     6.046000000
H    -0.701000000    -1.183000000     7.421000000
O    -0.753000000    -5.111000000     0.278000000
H    -0.097000000    -5.578000000     0.797000000
H    -0.976000000    -4.346000000     0.808000000
O    -4.488000000     4.154000000    -3.741000000
H    -4.734000000     3.238000000    -3.867000000
H    -5.282000000     4.571000000    -3.405000000
O    -4.978000000    -2.591000000    -0.566000000
H    -4.376000000    -2.451000000    -1.298000000
H    -4.420000000    -2.903000000     0.146000000
O    -2.451000000    -0.841000000     3.847000000
H    -3.240000000    -0.934000000     4.380000000
H    -2.766000000    -0.882000000     2.944000000
O    -0.928000000     2.264000000     1.726000000
H    -0.044000000     2.599000000     1.576000000
H    -1.006000000     1.519000000     1.130000000
O    -3.377000000     6.920000000    -1.253000000
H    -3.222000000     6.025000000    -1.552000000
H    -4.126000000     7.218000000    -1.769000000
O    -0.629000000     4.997000000    -5.654000000
H    -0.531000000     4.054000000    -5.520000000
H     0.053000000     5.389000000    -5.108000000
O     1.292000000    -5.340000000     2.265000000
H     1.237000000    -4.386000000     2.218000000
H     0.812000000    -5.569000000     3.062000000
O     6.342000000     1.310000000     0.834000000
H     5.553000000     0.897000000     1.185000000
H     7.064000000     0.837000000     1.248000000
O    -0.319000000    -1.486000000    -3.103000000
H    -0.480000000    -2.392000000    -2.841000000
H    -0.459000000    -0.977000000    -2.305000000
O     0.454000000    -0.754000000     4.610000000
H    -0.440000000    -0.621000000     4.293000000
H     0.773000000    -1.511000000     4.118000000
O     4.918000000    -0.349000000     2.671000000
H     4.076000000    -0.211000000     3.106000000
H     5.543000000    -0.456000000     3.388000000
O    -2.038000000    -0.810000000    -5.255000000
H    -1.863000000    -1.062000000    -6.161000000
H    -1.300000000    -1.166000000    -4.760000000
O     1.764000000     1.206000000    -6.604000000
H     0.814000000     1.318000000    -6.641000000
H     1.913000000     0.678000000    -5.819000000
O    -3.452000000    -5.854000000    -0.759000000
H    -3.056000000    -5.424000000    -0.001000000
H    -3.837000000    -5.140000000    -1.267000000
O     3.611000000    -2.995000000     3.121000000
H     4.025000000    -2.481000000     2.428000000
H     2.686000000    -2.752000000     3.081000000
O     4.320000000     0.759000000    -4.432000000
H     3.683000000     0.051000000    -4.339000000
H     5.129000000     0.320000000    -4.698000000
O    -0.978000000     2.109000000    -5.912000000
H    -1.249000000     1.675000000    -5.103000000
H    -1.723000000     2.003000000    -6.503000000
O    -0.149000000    -4.261000000    -2.188000000
H    -0.484000000    -4.576000000    -1.348000000
H     0.642000000    -4.778000000    -2.339000000
O     4.447000000    -3.451000000     5.921000000
H     4.555000000    -4.369000000     6.170000000
H     3.956000000    -3.482000000     5.100000000
O     2.556000000    -7.437000000     1.256000000
H     3.105000000    -7.215000000     0.504000000
H     2.153000000    -6.607000000     1.512000000
O     4.069000000     3.230000000    -2.779000000
H     4.097000000     3.893000000    -3.469000000
H     3.894000000     2.410000000    -3.242000000
O     6.547000000     2.368000000    -2.261000000
H     5.611000000     2.534000000    -2.366000000
H     6.625000000     1.414000000    -2.272000000
O    -2.244000000     4.366000000    -1.317000000
H    -2.673000000     3.818000000    -0.660000000
H    -2.821000000     4.322000000    -2.079000000
O     1.429000000    -4.348000000     5.420000000
H     1.450000000    -3.657000000     4.758000000
H     0.563000000    -4.744000000     5.324000000
O    -2.935000000    -3.175000000    -2.441000000
H    -2.047000000    -3.391000000    -2.154000000
H    -2.946000000    -3.399000000    -3.372000000
O     0.027000000     7.275000000    -2.838000000
H     0.227000000     8.174000000    -2.575000000
H    -0.536000000     6.942000000    -2.139000000
O    -5.340000000     1.746000000    -4.191000000
H    -5.236000000     0.797000000    -4.266000000
H    -5.719000000     1.877000000    -3.322000000
O    -0.438000000     5.781000000    -0.052000000
H     0.163000000     5.145000000     0.336000000
H    -1.049000000     5.251000000    -0.564000000
O     3.809000000     2.821000000     0.073000000
H     4.742000000     2.664000000     0.217000000
H     3.721000000     2.891000000    -0.877000000
O    -1.245000000    -3.646000000     4.510000000
H    -1.744000000    -2.857000000     4.718000000
H    -0.999000000    -3.540000000     3.591000000
O     3.265000000     2.238000000     2.732000000
H     3.469000000     2.466000000     1.825000000
H     3.062000000     3.076000000     3.149000000
O     6.013000000    -2.456000000     0.246000000
H     5.655000000    -2.088000000     1.054000000
H     6.921000000    -2.669000000     0.461000000
O     0.056000000    -6.560000000     4.587000000
H     0.763000000    -7.050000000     5.007000000
H    -0.694000000    -7.153000000     4.611000000
O    -3.035000000    -5.473000000     5.537000000
H    -2.815000000    -6.397000000     5.422000000
H    -2.253000000    -5.003000000     5.245000000
