161
-3050.40156
C     1.151000000    -0.399000000     0.867000000
H     2.035000000    -0.643000000     1.451000000
C     1.039000000     0.747000000     0.192000000
H     1.794000000     1.529000000     0.203000000
C    -0.109000000     1.067000000    -0.608000000
C    -0.258000000     2.430000000    -1.277000000
H    -0.676000000     2.255000000    -2.271000000
H    -0.934000000     3.030000000    -0.664000000
H     0.723000000     2.907000000    -1.317000000
C    -1.001000000     0.069000000    -0.835000000
H    -1.750000000     0.262000000    -1.598000000
C    -0.921000000    -1.165000000    -0.118000000
H    -1.538000000    -2.023000000    -0.373000000
C     0.120000000    -1.385000000     0.757000000
C     0.144000000    -2.617000000     1.607000000
O    -0.754000000    -3.397000000     1.461000000
O     0.938000000    -2.663000000     2.526000000
O    -4.016000000    -1.328000000     4.981000000
H    -3.677000000    -2.030000000     4.425000000
H    -4.595000000    -1.772000000     5.600000000
O    -3.433000000    -2.500000000     1.524000000
H    -2.517000000    -2.777000000     1.528000000
H    -3.923000000    -3.293000000     1.307000000
O     2.182000000     5.433000000     2.806000000
H     1.745000000     4.981000000     3.528000000
H     1.778000000     6.300000000     2.786000000
O    -1.659000000    -2.670000000     7.040000000
H    -1.982000000    -2.850000000     6.157000000
H    -1.591000000    -3.532000000     7.450000000
O     5.158000000     0.683000000     5.255000000
H     5.091000000     1.627000000     5.394000000
H     4.320000000     0.336000000     5.562000000
O    -5.446000000    -4.381000000     0.184000000
H    -5.833000000    -5.204000000    -0.116000000
H    -4.540000000    -4.418000000    -0.121000000
O    -0.192000000     5.333000000    -3.392000000
H     0.709000000     5.012000000    -3.351000000
H    -0.690000000     4.720000000    -2.851000000
O     3.755000000     2.344000000    -1.618000000
H     4.133000000     1.479000000    -1.456000000
H     4.479000000     2.858000000    -1.976000000
O     1.176000000    -1.126000000    -4.503000000
H     1.308000000    -0.182000000    -4.420000000
H     1.336000000    -1.469000000    -3.624000000
O    -0.768000000    -7.425000000     2.428000000
H    -1.283000000    -6.845000000     2.990000000
H    -0.440000000    -6.854000000     1.733000000
O    -4.811000000     1.114000000    -3.773000000
H    -5.315000000     1.861000000    -3.450000000
H    -3.905000000     1.424000000    -3.785000000
O     5.902000000     1.672000000     2.589000000
H     5.649000000     1.015000000     1.940000000
H     5.467000000     1.392000000     3.395000000
O    -0.757000000    -3.858000000    -3.219000000
H    -0.165000000    -3.606000000    -2.510000000
H    -1.481000000    -3.235000000    -3.160000000
O    -3.137000000     0.198000000     2.873000000
H    -3.172000000    -0.547000000     2.273000000
H    -3.470000000    -0.145000000     3.702000000
O     2.691000000     7.043000000    -2.684000000
H     2.788000000     7.076000000    -3.636000000
H     1.761000000     7.210000000    -2.532000000
O     5.199000000    -4.378000000     3.565000000
H     5.429000000    -5.260000000     3.272000000
H     5.381000000    -4.383000000     4.505000000
O    -1.327000000     4.577000000     2.139000000
H    -0.526000000     4.151000000     2.442000000
H    -1.864000000     3.862000000     1.796000000
O     3.749000000    -2.702000000     1.845000000
H     2.886000000    -2.533000000     2.222000000
H     4.236000000    -3.135000000     2.546000000
O    -3.669000000    -5.109000000    -3.387000000
H    -4.196000000    -5.462000000    -4.104000000
H    -3.700000000    -4.161000000    -3.512000000
O    -1.948000000     0.430000000    -4.523000000
H    -2.171000000     0.463000000    -5.453000000
H    -0.993000000     0.367000000    -4.507000000
O     6.574000000     3.774000000     0.958000000
H     5.761000000     4.121000000     0.591000000
H     6.289000000     3.115000000     1.591000000
O    -3.924000000     2.308000000    -1.423000000
H    -3.637000000     2.527000000    -0.537000000
H    -4.488000000     1.542000000    -1.310000000
O    -0.881000000     1.659000000     3.814000000
H    -0.940000000     1.071000000     4.567000000
H    -1.461000000     1.269000000     3.160000000
O     3.664000000     4.296000000     0.238000000
H     3.270000000     3.563000000    -0.235000000
H     3.180000000     4.338000000     1.063000000
O     1.388000000    -3.911000000     7.155000000
H     0.500000000    -4.261000000     7.086000000
H     1.932000000    -4.540000000     6.682000000
O    -2.352000000    -6.321000000     4.247000000
H    -3.269000000    -6.574000000     4.140000000
H    -2.039000000    -6.855000000     4.977000000
O     2.123000000    -6.422000000     0.877000000
H     2.134000000    -6.015000000     1.743000000
H     1.216000000    -6.336000000     0.583000000
O     2.865000000    -5.644000000     5.563000000
H     3.049000000    -6.505000000     5.188000000
H     2.636000000    -5.099000000     4.810000000
O     2.146000000     1.619000000    -3.942000000
H     2.686000000     1.451000000    -3.170000000
H     1.985000000     2.563000000    -3.920000000
O     3.237000000    -3.448000000    -0.802000000
H     3.581000000    -3.203000000     0.057000000
H     3.428000000    -4.383000000    -0.879000000
O     3.956000000    -0.548000000    -1.631000000
H     3.297000000    -1.243000000    -1.622000000
H     4.684000000    -0.914000000    -2.132000000
O    -5.589000000     0.272000000    -0.790000000
H    -5.997000000     0.501000000     0.045000000
H    -6.009000000    -0.549000000    -1.045000000
O     4.750000000    -0.118000000     0.818000000
H     4.438000000    -0.359000000    -0.055000000
H     4.748000000    -0.940000000     1.308000000
O    -1.287000000     7.119000000     1.308000000
H    -1.979000000     7.329000000     0.681000000
H    -1.274000000     6.163000000     1.341000000
O     2.531000000     4.336000000    -3.584000000
H     2.707000000     4.885000000    -2.820000000
H     3.347000000     4.354000000    -4.084000000
O     2.604000000    -0.060000000     6.128000000
H     2.153000000     0.731000000     6.422000000
H     2.063000000    -0.392000000     5.412000000
O    -3.245000000    -5.832000000    -0.908000000
H    -3.254000000    -5.562000000    -1.826000000
H    -3.983000000    -6.436000000    -0.828000000
O    -2.707000000     7.300000000    -1.051000000
H    -2.119000000     7.896000000    -1.516000000
H    -2.590000000     6.457000000    -1.490000000
O    -0.910000000     5.056000000    -6.772000000
H    -1.257000000     5.840000000    -6.347000000
H    -0.848000000     4.410000000    -6.068000000
O    -3.146000000     2.705000000     1.477000000
H    -3.958000000     3.209000000     1.424000000
H    -3.337000000     2.009000000     2.106000000
O    -2.871000000     4.740000000    -2.235000000
H    -2.843000000     3.786000000    -2.174000000
H    -3.774000000     4.939000000    -2.481000000
O     1.196000000    -5.151000000     3.108000000
H     1.141000000    -4.258000000     2.769000000
H     0.333000000    -5.527000000     2.935000000
O    -1.706000000     7.486000000    -4.405000000
H    -1.173000000     6.763000000    -4.076000000
H    -2.369000000     7.623000000    -3.728000000
O    -3.241000000    -2.354000000    -3.315000000
H    -3.123000000    -1.505000000    -2.889000000
H    -3.853000000    -2.181000000    -4.030000000
O    -0.695000000    -5.949000000     0.235000000
H    -1.583000000    -6.040000000    -0.111000000
H    -0.648000000    -5.042000000     0.537000000
O     1.434000000    -1.856000000    -2.022000000
H     1.967000000    -2.401000000    -1.443000000
H     1.036000000    -1.207000000    -1.442000000
O    -1.735000000    -3.627000000     4.585000000
H    -2.075000000    -4.518000000     4.671000000
H    -1.226000000    -3.642000000     3.774000000
O     0.268000000    -1.291000000     4.870000000
H     0.347000000    -1.977000000     4.206000000
H    -0.068000000    -1.744000000     5.643000000
