161
-3045.01891
C     0.915000000    -1.044000000     0.494000000
H     1.560000000    -1.747000000     1.014000000
C     1.332000000     0.220000000     0.133000000
H     2.363000000     0.551000000     0.225000000
C     0.365000000     1.103000000    -0.320000000
C     0.677000000     2.561000000    -0.561000000
H     0.232000000     3.118000000     0.266000000
H     1.756000000     2.718000000    -0.621000000
H     0.294000000     3.046000000    -1.462000000
C    -0.938000000     0.685000000    -0.620000000
H    -1.710000000     1.339000000    -1.017000000
C    -1.327000000    -0.599000000    -0.195000000
H    -2.371000000    -0.868000000    -0.339000000
C    -0.425000000    -1.439000000     0.396000000
C    -0.817000000    -2.813000000     0.786000000
O    -1.948000000    -3.169000000     0.731000000
O     0.046000000    -3.655000000     1.087000000
O    -4.325000000    -2.114000000     1.032000000
H    -3.385000000    -2.283000000     1.090000000
H    -4.623000000    -2.098000000     1.941000000
O    -2.059000000     4.959000000     4.649000000
H    -2.568000000     5.755000000     4.497000000
H    -1.807000000     4.665000000     3.774000000
O     0.161000000     7.091000000    -3.795000000
H    -0.688000000     6.716000000    -3.561000000
H     0.623000000     6.378000000    -4.238000000
O     1.536000000    -7.236000000     0.503000000
H     2.307000000    -7.421000000     1.039000000
H     1.439000000    -8.010000000    -0.052000000
O    -5.540000000    -3.146000000    -1.218000000
H    -5.116000000    -2.988000000    -0.375000000
H    -5.089000000    -3.912000000    -1.573000000
O    -4.839000000    -4.095000000     3.827000000
H    -5.142000000    -4.958000000     3.546000000
H    -5.603000000    -3.527000000     3.722000000
O     0.259000000     4.503000000    -5.967000000
H    -0.680000000     4.542000000    -6.148000000
H     0.468000000     3.569000000    -5.992000000
O    -1.365000000     0.762000000    -5.354000000
H    -0.843000000     0.296000000    -6.008000000
H    -0.718000000     1.145000000    -4.760000000
O    -1.315000000    -7.976000000     1.743000000
H    -2.227000000    -7.798000000     1.971000000
H    -1.079000000    -7.277000000     1.134000000
O    -3.344000000     1.984000000    -3.712000000
H    -2.634000000     1.585000000    -4.214000000
H    -3.976000000     1.276000000    -3.586000000
O     5.131000000     0.710000000     3.062000000
H     5.487000000     0.180000000     2.349000000
H     4.566000000     0.110000000     3.548000000
O    -2.769000000    -3.812000000    -1.730000000
H    -2.499000000    -3.572000000    -0.844000000
H    -3.210000000    -3.032000000    -2.066000000
O     0.081000000    -3.061000000    -3.045000000
H    -0.765000000    -2.629000000    -2.928000000
H     0.593000000    -2.796000000    -2.280000000
O     3.383000000     5.815000000    -1.536000000
H     3.828000000     6.431000000    -2.118000000
H     2.783000000     6.359000000    -1.026000000
O     5.323000000    -3.586000000     1.703000000
H     5.754000000    -3.304000000     2.510000000
H     4.589000000    -4.124000000     1.999000000
O    -1.596000000     3.900000000     2.178000000
H    -2.307000000     3.291000000     1.981000000
H    -0.803000000     3.365000000     2.140000000
O     4.561000000     4.105000000    -3.622000000
H     4.602000000     5.057000000    -3.536000000
H     4.612000000     3.780000000    -2.723000000
O     0.646000000    -3.123000000     3.593000000
H     0.502000000    -3.341000000     2.673000000
H     0.369000000    -3.905000000     4.071000000
O    -3.476000000     1.720000000     2.874000000
H    -3.983000000     0.908000000     2.901000000
H    -2.595000000     1.444000000     2.624000000
O     0.893000000     3.973000000     4.663000000
H    -0.036000000     4.111000000     4.848000000
H     0.959000000     4.032000000     3.710000000
O    -0.968000000     6.838000000     2.840000000
H    -1.801000000     6.653000000     2.407000000
H    -0.321000000     6.349000000     2.331000000
O    -4.655000000    -0.385000000    -2.887000000
H    -5.558000000    -0.665000000    -3.041000000
H    -4.633000000    -0.147000000    -1.961000000
O    -1.082000000     0.706000000     2.547000000
H    -0.800000000     0.347000000     1.706000000
H    -0.335000000     0.566000000     3.130000000
O     4.849000000     3.733000000    -0.940000000
H     4.208000000     4.443000000    -0.917000000
H     4.881000000     3.409000000    -0.040000000
O     1.330000000    -6.316000000    -2.517000000
H     2.146000000    -6.244000000    -2.022000000
H     0.975000000    -5.427000000    -2.526000000
O    -0.526000000    -6.935000000     4.252000000
H    -0.556000000    -7.387000000     3.409000000
H    -1.287000000    -6.355000000     4.240000000
O     4.432000000    -1.142000000     0.129000000
H     5.340000000    -1.019000000     0.408000000
H     4.116000000    -1.874000000     0.659000000
O     1.290000000     2.035000000    -5.878000000
H     1.723000000     1.549000000    -5.176000000
H     2.001000000     2.284000000    -6.469000000
O     2.302000000    -4.441000000     0.113000000
H     1.444000000    -4.150000000     0.418000000
H     2.466000000    -5.252000000     0.595000000
O     3.003000000     0.602000000    -3.853000000
H     3.598000000     1.067000000    -4.442000000
H     3.562000000    -0.024000000    -3.393000000
O     3.262000000    -5.840000000     2.531000000
H     2.758000000    -5.753000000     3.340000000
H     3.395000000    -6.783000000     2.431000000
O     5.037000000     3.068000000     1.565000000
H     4.634000000     3.785000000     2.055000000
H     4.877000000     2.292000000     2.101000000
O     1.270000000     5.193000000     2.231000000
H     2.074000000     5.320000000     2.734000000
H     1.414000000     5.679000000     1.419000000
O    -2.291000000     5.711000000    -3.315000000
H    -3.135000000     5.901000000    -2.907000000
H    -2.500000000     5.111000000    -4.031000000
O    -1.832000000    -6.156000000    -2.986000000
H    -2.269000000    -5.437000000    -2.531000000
H    -1.140000000    -6.434000000    -2.386000000
O     3.695000000    -1.160000000     4.331000000
H     2.823000000    -0.800000000     4.171000000
H     3.532000000    -2.023000000     4.711000000
O    -4.062000000     5.905000000    -0.241000000
H    -4.572000000     6.074000000    -1.033000000
H    -4.067000000     4.952000000    -0.152000000
O     2.514000000     5.494000000    -5.131000000
H     2.771000000     4.854000000    -4.468000000
H     1.697000000     5.150000000    -5.492000000
O    -5.264000000     0.368000000    -0.341000000
H    -6.139000000     0.699000000    -0.137000000
H    -5.136000000    -0.362000000     0.264000000
O    -4.442000000     3.019000000    -0.512000000
H    -4.641000000     2.127000000    -0.227000000
H    -4.009000000     2.910000000    -1.358000000
O     1.712000000     7.080000000     0.144000000
H     1.141000000     7.702000000    -0.308000000
H     2.125000000     7.594000000     0.838000000
O     0.934000000    -0.910000000    -5.066000000
H     1.540000000    -0.400000000    -4.528000000
H     0.444000000    -1.441000000    -4.438000000
O     5.894000000    -0.535000000    -3.014000000
H     6.836000000    -0.511000000    -3.186000000
H     5.827000000    -0.737000000    -2.081000000
O    -2.229000000    -1.441000000    -3.727000000
H    -3.093000000    -1.149000000    -3.436000000
H    -1.983000000    -0.818000000    -4.411000000
O    -0.943000000    -5.933000000    -0.044000000
H    -1.098000000    -5.003000000     0.123000000
H     0.010000000    -6.023000000    -0.029000000
O     2.700000000    -2.502000000    -1.559000000
H     2.534000000    -3.236000000    -0.967000000
H     3.345000000    -1.964000000    -1.099000000
O    -2.166000000    -4.946000000     3.330000000
H    -2.979000000    -4.447000000     3.403000000
H    -1.797000000    -4.681000000     2.487000000
O     0.716000000    -0.503000000     4.344000000
H     0.038000000    -0.568000000     5.017000000
H     0.909000000    -1.411000000     4.110000000
