161
-3064.33095
C     0.692000000    -1.142000000     0.632000000
H     1.289000000    -1.983000000     0.976000000
C     1.324000000     0.040000000     0.364000000
H     2.374000000     0.140000000     0.629000000
C     0.557000000     1.087000000    -0.106000000
C     1.130000000     2.405000000    -0.498000000
H     2.030000000     2.621000000     0.083000000
H     1.348000000     2.344000000    -1.566000000
H     0.436000000     3.222000000    -0.289000000
C    -0.780000000     0.881000000    -0.463000000
H    -1.310000000     1.762000000    -0.815000000
C    -1.372000000    -0.375000000    -0.370000000
H    -2.368000000    -0.509000000    -0.784000000
C    -0.702000000    -1.337000000     0.316000000
C    -1.339000000    -2.693000000     0.575000000
O    -2.489000000    -2.903000000     0.092000000
O    -0.823000000    -3.555000000     1.219000000
O    -4.181000000    -1.242000000     1.120000000
H    -3.532000000    -1.867000000     0.797000000
H    -3.764000000    -0.835000000     1.880000000
O     4.412000000    -0.514000000     4.865000000
H     4.781000000    -1.015000000     4.137000000
H     4.807000000     0.354000000     4.783000000
O    -4.339000000    -5.893000000    -1.260000000
H    -4.686000000    -6.778000000    -1.375000000
H    -4.036000000    -5.640000000    -2.131000000
O    -5.011000000    -3.126000000    -1.905000000
H    -4.654000000    -2.543000000    -2.575000000
H    -4.244000000    -3.431000000    -1.420000000
O     5.209000000     4.090000000     2.208000000
H     6.143000000     4.287000000     2.278000000
H     5.016000000     4.171000000     1.274000000
O    -6.338000000    -4.743000000     0.922000000
H    -6.689000000    -5.377000000     0.296000000
H    -6.523000000    -3.890000000     0.528000000
O    -0.278000000     6.552000000    -2.166000000
H    -0.989000000     7.182000000    -2.046000000
H    -0.353000000     6.278000000    -3.080000000
O     4.518000000     6.556000000     0.581000000
H     4.214000000     7.180000000     1.241000000
H     3.731000000     6.329000000     0.086000000
O    -1.813000000    -0.381000000    -5.462000000
H    -1.978000000     0.292000000    -6.121000000
H    -1.092000000    -0.032000000    -4.938000000
O    -2.256000000    -8.059000000     2.398000000
H    -3.209000000    -8.114000000     2.469000000
H    -2.095000000    -7.212000000     1.984000000
O     6.043000000    -1.596000000     2.678000000
H     6.825000000    -1.355000000     3.174000000
H     5.850000000    -2.492000000     2.955000000
O    -1.930000000    -3.713000000    -2.425000000
H    -2.077000000    -3.373000000    -1.543000000
H    -2.506000000    -3.190000000    -2.982000000
O    -2.776000000    -0.540000000     3.354000000
H    -3.351000000    -1.249000000     3.642000000
H    -1.979000000    -0.651000000     3.873000000
O     0.661000000    -3.313000000    -2.981000000
H    -0.275000000    -3.403000000    -2.801000000
H     1.043000000    -4.138000000    -2.681000000
O     5.990000000     4.534000000    -0.597000000
H     6.885000000     4.605000000    -0.927000000
H     5.725000000     5.437000000    -0.425000000
O     3.466000000    -3.722000000     1.065000000
H     4.178000000    -4.358000000     1.135000000
H     2.742000000    -4.215000000     0.679000000
O    -0.399000000     4.196000000     4.095000000
H    -0.396000000     3.310000000     3.732000000
H    -0.372000000     4.769000000     3.329000000
O     2.911000000     2.906000000    -4.880000000
H     2.600000000     3.533000000    -4.227000000
H     3.789000000     2.667000000    -4.583000000
O    -0.242000000    -3.562000000     3.883000000
H    -0.317000000    -3.593000000     2.930000000
H    -1.027000000    -4.009000000     4.200000000
O    -2.939000000     1.945000000     2.245000000
H    -3.119000000     1.128000000     2.709000000
H    -2.015000000     2.123000000     2.423000000
O    -0.306000000     1.941000000     2.886000000
H     0.096000000     1.495000000     2.140000000
H    -0.361000000     1.269000000     3.565000000
O     5.200000000     1.977000000    -1.261000000
H     5.525000000     2.856000000    -1.068000000
H     5.235000000     1.519000000    -0.421000000
O    -3.971000000    -2.536000000     4.547000000
H    -4.651000000    -2.803000000     5.166000000
H    -4.111000000    -3.094000000     3.782000000
O    -2.560000000    -5.427000000     3.922000000
H    -3.187000000    -6.151000000     3.899000000
H    -2.742000000    -4.927000000     3.127000000
O     3.975000000    -2.609000000    -1.365000000
H     4.435000000    -1.770000000    -1.373000000
H     3.889000000    -2.826000000    -0.437000000
O     0.922000000     1.226000000    -4.399000000
H     1.783000000     1.588000000    -4.607000000
H     1.080000000     0.649000000    -3.652000000
O     1.396000000    -5.711000000     0.190000000
H     0.466000000    -5.565000000     0.363000000
H     1.686000000    -6.280000000     0.903000000
O    -7.253000000     1.276000000    -0.096000000
H    -7.547000000     0.788000000     0.674000000
H    -6.304000000     1.344000000     0.011000000
O     1.860000000    -0.457000000    -2.610000000
H     1.895000000    -0.196000000    -1.689000000
H     1.582000000    -1.373000000    -2.588000000
O     5.627000000     1.030000000     1.527000000
H     4.937000000     1.454000000     2.037000000
H     5.793000000     0.206000000     1.986000000
O    -0.380000000     5.997000000     2.106000000
H     0.343000000     6.597000000     2.290000000
H    -1.036000000     6.539000000     1.668000000
O    -3.447000000     6.033000000     2.246000000
H    -3.675000000     5.411000000     2.937000000
H    -2.691000000     5.641000000     1.809000000
O    -0.902000000    -5.715000000    -4.328000000
H    -1.355000000    -5.148000000    -3.704000000
H    -0.246000000    -6.174000000    -3.802000000
O    -6.691000000    -2.198000000     0.139000000
H    -6.154000000    -1.664000000     0.725000000
H    -6.109000000    -2.410000000    -0.591000000
O     2.460000000    -3.340000000     4.032000000
H     1.517000000    -3.494000000     3.976000000
H     2.795000000    -3.583000000     3.169000000
O    -1.829000000     5.159000000     0.001000000
H    -0.997000000     5.115000000    -0.471000000
H    -2.398000000     4.543000000    -0.459000000
O    -0.625000000     3.458000000    -5.026000000
H    -0.389000000     2.595000000    -4.686000000
H    -0.315000000     3.451000000    -5.932000000
O    -4.597000000     1.509000000     0.244000000
H    -3.947000000     1.864000000     0.850000000
H    -4.379000000     0.579000000     0.178000000
O    -3.842000000     3.415000000    -1.770000000
H    -4.068000000     2.946000000    -0.966000000
H    -4.129000000     2.834000000    -2.475000000
O     2.042000000     6.825000000    -0.802000000
H     1.234000000     6.351000000    -0.998000000
H     2.503000000     6.869000000    -1.640000000
O     2.176000000     5.248000000    -3.685000000
H     1.797000000     6.096000000    -3.916000000
H     3.077000000     5.449000000    -3.431000000
O    -3.435000000    -1.575000000    -3.552000000
H    -4.257000000    -1.150000000    -3.797000000
H    -2.771000000    -1.136000000    -4.084000000
O    -1.531000000    -5.998000000     0.417000000
H    -1.447000000    -5.136000000     0.824000000
H    -2.139000000    -5.862000000    -0.310000000
O    -3.683000000     5.823000000    -3.006000000
H    -3.558000000     4.962000000    -2.606000000
H    -2.959000000     5.905000000    -3.627000000
O    -3.814000000    -4.324000000     1.841000000
H    -4.703000000    -4.527000000     1.550000000
H    -3.400000000    -3.916000000     1.081000000
O    -0.330000000    -0.835000000     4.473000000
H     0.443000000    -0.439000000     4.874000000
H    -0.084000000    -1.749000000     4.330000000
O     5.422000000     2.278000000    -4.060000000
H     5.521000000     2.297000000    -3.108000000
H     5.766000000     1.423000000    -4.319000000
O    -0.598000000    -6.199000000     5.764000000
H    -1.141000000    -5.678000000     6.356000000
H    -1.100000000    -6.238000000     4.950000000
