161
-3017.84779
C     0.736000000    -0.743000000     1.075000000
H     1.352000000    -1.173000000     1.861000000
C     0.869000000     0.597000000     0.732000000
H     1.621000000     1.201000000     1.233000000
C     0.100000000     1.173000000    -0.294000000
C     0.269000000     2.656000000    -0.557000000
H     0.019000000     2.890000000    -1.594000000
H    -0.373000000     3.319000000     0.028000000
H     1.318000000     2.926000000    -0.420000000
C    -0.779000000     0.340000000    -1.013000000
H    -1.403000000     0.714000000    -1.820000000
C    -0.988000000    -0.989000000    -0.651000000
H    -1.639000000    -1.559000000    -1.310000000
C    -0.269000000    -1.489000000     0.375000000
C    -0.278000000    -2.925000000     0.681000000
O    -0.374000000    -3.724000000    -0.168000000
O    -0.184000000    -3.220000000     1.841000000
O    -1.522000000     5.473000000    -3.433000000
H    -2.190000000     5.758000000    -4.057000000
H    -1.989000000     4.893000000    -2.831000000
O     3.998000000    -4.071000000     1.469000000
H     4.623000000    -4.166000000     2.188000000
H     4.492000000    -4.320000000     0.688000000
O     5.015000000     6.450000000     0.708000000
H     4.905000000     5.559000000     0.375000000
H     4.492000000     6.472000000     1.509000000
O    -0.162000000    -6.957000000     1.681000000
H     0.625000000    -6.757000000     1.174000000
H    -0.003000000    -6.558000000     2.536000000
O    -5.100000000     2.801000000     0.545000000
H    -4.182000000     2.712000000     0.802000000
H    -5.245000000     2.089000000    -0.077000000
O    -4.680000000    -2.639000000     0.982000000
H    -3.913000000    -2.817000000     0.437000000
H    -4.360000000    -2.719000000     1.880000000
O     0.645000000    -3.407000000    -2.815000000
H     0.046000000    -3.706000000    -2.131000000
H     1.484000000    -3.811000000    -2.592000000
O     5.365000000     0.249000000    -1.930000000
H     4.668000000     0.284000000    -1.274000000
H     5.171000000    -0.535000000    -2.444000000
O     0.111000000     4.330000000    -5.421000000
H     0.027000000     4.875000000    -6.203000000
H    -0.189000000     4.890000000    -4.705000000
O    -0.128000000    -2.241000000     4.051000000
H     0.025000000    -2.679000000     3.214000000
H    -1.069000000    -2.335000000     4.201000000
O    -3.987000000    -5.682000000    -3.189000000
H    -4.347000000    -6.569000000    -3.208000000
H    -3.303000000    -5.715000000    -2.520000000
O    -4.883000000     0.701000000    -4.587000000
H    -5.793000000     0.883000000    -4.820000000
H    -4.570000000     1.513000000    -4.189000000
O    -5.740000000    -3.959000000    -1.903000000
H    -5.266000000    -4.566000000    -2.472000000
H    -5.449000000    -3.091000000    -2.183000000
O    -1.307000000    -2.042000000    -4.159000000
H    -1.042000000    -1.503000000    -4.904000000
H    -0.507000000    -2.497000000    -3.896000000
O     0.249000000    -7.116000000    -1.468000000
H     0.925000000    -6.709000000    -0.927000000
H     0.637000000    -7.162000000    -2.342000000
O     5.290000000    -1.654000000     1.542000000
H     5.022000000    -1.300000000     2.389000000
H     4.782000000    -2.460000000     1.447000000
O    -2.691000000     2.112000000     1.448000000
H    -1.952000000     2.717000000     1.391000000
H    -2.291000000     1.242000000     1.419000000
O    -1.583000000     3.787000000     4.781000000
H    -0.897000000     3.473000000     4.192000000
H    -2.045000000     4.457000000     4.276000000
O     0.358000000     7.028000000    -2.606000000
H    -0.363000000     6.547000000    -3.013000000
H     1.088000000     6.409000000    -2.607000000
O     1.669000000     4.616000000     5.423000000
H     2.567000000     4.306000000     5.302000000
H     1.180000000     4.216000000     4.703000000
O    -3.918000000    -1.524000000    -3.139000000
H    -3.004000000    -1.748000000    -3.314000000
H    -4.073000000    -0.730000000    -3.651000000
O     0.675000000     2.818000000     3.655000000
H     0.522000000     1.911000000     3.918000000
H     1.456000000     2.779000000     3.103000000
O     3.236000000     2.697000000    -1.840000000
H     2.699000000     1.910000000    -1.934000000
H     2.709000000     3.395000000    -2.227000000
O    -0.250000000     7.120000000     1.707000000
H     0.490000000     6.691000000     1.276000000
H    -0.509000000     6.511000000     2.399000000
O    -3.082000000     5.499000000    -0.324000000
H    -3.833000000     6.082000000    -0.431000000
H    -3.158000000     4.874000000    -1.045000000
O    -3.436000000     3.679000000    -2.370000000
H    -3.146000000     3.118000000    -3.089000000
H    -4.302000000     3.984000000    -2.639000000
O     5.072000000    -1.354000000     4.888000000
H     4.657000000    -0.791000000     5.542000000
H     4.375000000    -1.947000000     4.606000000
O     2.435000000    -0.044000000    -1.764000000
H     1.644000000    -0.336000000    -1.311000000
H     2.235000000    -0.157000000    -2.693000000
O     0.933000000    -2.699000000     6.548000000
H     0.714000000    -3.560000000     6.906000000
H     0.652000000    -2.742000000     5.634000000
O     1.697000000    -0.894000000    -4.212000000
H     1.868000000    -0.957000000    -5.151000000
H     1.296000000    -1.734000000    -3.985000000
O    -1.924000000     2.604000000    -4.698000000
H    -1.221000000     3.226000000    -4.881000000
H    -1.608000000     1.773000000    -5.054000000
O    -4.910000000    -6.133000000    -0.131000000
H    -5.419000000    -5.323000000    -0.136000000
H    -3.999000000    -5.844000000    -0.085000000
O    -1.575000000    -5.446000000     4.778000000
H    -1.185000000    -5.236000000     5.627000000
H    -1.119000000    -6.238000000     4.494000000
O    -2.094000000    -5.410000000    -1.061000000
H    -1.525000000    -4.675000000    -0.834000000
H    -1.494000000    -6.138000000    -1.222000000
O     3.260000000     3.240000000     2.351000000
H     4.020000000     2.898000000     2.822000000
H     3.584000000     3.411000000     1.467000000
O    -2.250000000     5.064000000     2.214000000
H    -3.068000000     4.790000000     2.628000000
H    -2.504000000     5.328000000     1.330000000
O     3.766000000    -2.469000000    -0.663000000
H     3.511000000    -1.610000000    -0.327000000
H     4.714000000    -2.505000000    -0.537000000
O    -5.423000000     0.771000000    -1.195000000
H    -5.056000000    -0.011000000    -1.608000000
H    -6.134000000     1.039000000    -1.778000000
O     1.860000000     5.701000000     0.630000000
H     2.366000000     5.778000000     1.438000000
H     1.919000000     4.774000000     0.397000000
O     4.850000000     3.745000000    -0.029000000
H     4.219000000     3.301000000    -0.596000000
H     5.662000000     3.251000000    -0.141000000
O     0.657000000     0.242000000     4.694000000
H     0.274000000    -0.628000000     4.580000000
H     1.545000000     0.072000000     5.010000000
O     2.631000000     5.420000000    -1.947000000
H     2.589000000     5.743000000    -1.047000000
H     3.453000000     5.771000000    -2.289000000
O     1.722000000    -5.075000000     3.017000000
H     1.168000000    -4.480000000     2.513000000
H     2.410000000    -5.339000000     2.406000000
O     2.792000000    -2.523000000     3.779000000
H     1.868000000    -2.382000000     3.571000000
H     2.927000000    -3.462000000     3.647000000
O     2.034000000    -5.173000000    -0.033000000
H     1.302000000    -4.556000000    -0.062000000
H     2.742000000    -4.686000000     0.388000000
O    -2.896000000    -3.699000000     2.792000000
H    -2.848000000    -4.205000000     3.603000000
H    -2.028000000    -3.793000000     2.399000000
O     2.045000000     1.850000000    -4.511000000
H     1.710000000     0.955000000    -4.562000000
H     1.260000000     2.398000000    -4.481000000
O     3.459000000    -4.351000000    -2.562000000
H     3.950000000    -5.067000000    -2.159000000
H     3.433000000    -3.669000000    -1.890000000
