161
-3095.09384
C    -0.524000000    -0.711000000     1.162000000
H    -1.124000000    -1.108000000     1.976000000
C    -1.038000000     0.455000000     0.588000000
H    -1.968000000     0.858000000     0.980000000
C    -0.458000000     1.033000000    -0.555000000
C    -1.209000000     2.108000000    -1.196000000
H    -1.065000000     3.032000000    -0.633000000
H    -0.818000000     2.286000000    -2.200000000
H    -2.284000000     1.917000000    -1.165000000
C     0.702000000     0.486000000    -1.097000000
H     1.135000000     0.821000000    -2.036000000
C     1.261000000    -0.674000000    -0.506000000
H     2.221000000    -1.098000000    -0.788000000
C     0.683000000    -1.235000000     0.677000000
C     1.339000000    -2.339000000     1.411000000
O     2.409000000    -2.815000000     1.102000000
O     0.742000000    -3.017000000     2.280000000
O    -1.314000000    -4.677000000     2.735000000
H    -1.728000000    -4.323000000     3.522000000
H    -0.496000000    -4.187000000     2.653000000
O    -6.850000000     0.388000000     0.641000000
H    -7.580000000     0.745000000     0.135000000
H    -6.136000000     1.010000000     0.503000000
O     1.675000000    -5.351000000     2.865000000
H     1.532000000    -4.409000000     2.780000000
H     2.306000000    -5.561000000     2.177000000
O    -3.777000000     2.785000000     4.230000000
H    -4.285000000     3.136000000     3.498000000
H    -4.344000000     2.903000000     4.992000000
O     1.865000000    -5.378000000     5.497000000
H     1.099000000    -5.568000000     6.038000000
H     1.588000000    -5.589000000     4.606000000
O    -0.989000000     6.457000000    -3.355000000
H    -1.430000000     5.616000000    -3.242000000
H    -0.515000000     6.592000000    -2.535000000
O    -0.192000000    -0.032000000    -5.830000000
H    -0.091000000    -0.647000000    -6.556000000
H     0.394000000    -0.365000000    -5.151000000
O     2.824000000     5.722000000    -3.275000000
H     2.769000000     6.180000000    -2.436000000
H     2.490000000     4.844000000    -3.092000000
O     1.466000000    -5.601000000    -1.083000000
H     2.180000000    -5.319000000    -0.511000000
H     1.301000000    -6.509000000    -0.830000000
O    -2.568000000     1.236000000    -3.891000000
H    -2.150000000     0.973000000    -4.711000000
H    -2.273000000     0.587000000    -3.253000000
O     1.544000000    -0.976000000    -3.987000000
H     2.462000000    -1.245000000    -3.957000000
H     1.110000000    -1.535000000    -3.343000000
O    -1.892000000     3.823000000    -4.164000000
H    -0.986000000     3.548000000    -4.307000000
H    -2.401000000     3.015000000    -4.225000000
O    -0.917000000     1.203000000     4.103000000
H    -1.544000000     1.821000000     4.479000000
H    -1.454000000     0.595000000     3.596000000
O    -1.890000000    -5.022000000     0.191000000
H    -1.052000000    -5.307000000    -0.172000000
H    -1.726000000    -4.931000000     1.130000000
O    -0.900000000    -2.317000000     4.415000000
H    -1.273000000    -1.449000000     4.262000000
H    -0.325000000    -2.467000000     3.664000000
O     0.428000000     2.738000000    -5.297000000
H     1.284000000     2.716000000    -4.868000000
H     0.279000000     1.836000000    -5.579000000
O     0.868000000    -3.078000000    -2.422000000
H     1.806000000    -2.911000000    -2.328000000
H     0.743000000    -3.955000000    -2.057000000
O     2.771000000     2.635000000    -3.996000000
H     3.118000000     2.881000000    -3.138000000
H     3.361000000     1.947000000    -4.305000000
O    -3.808000000     3.964000000    -1.912000000
H    -3.097000000     3.974000000    -2.554000000
H    -4.024000000     4.887000000    -1.780000000
O     3.270000000    -5.242000000    -3.394000000
H     3.447000000    -4.562000000    -2.743000000
H     3.189000000    -6.047000000    -2.883000000
O    -1.736000000     3.379000000     2.399000000
H    -1.100000000     2.664000000     2.372000000
H    -2.512000000     2.993000000     2.805000000
O    -1.318000000     6.179000000     1.504000000
H    -1.301000000     5.234000000     1.655000000
H    -0.596000000     6.338000000     0.896000000
O    -4.904000000    -3.423000000     3.233000000
H    -4.775000000    -2.630000000     2.714000000
H    -5.488000000    -3.154000000     3.942000000
O    -4.798000000    -1.283000000     1.478000000
H    -5.442000000    -0.697000000     1.079000000
H    -4.474000000    -1.813000000     0.749000000
O     4.393000000    -4.936000000     4.666000000
H     3.520000000    -5.077000000     5.031000000
H     4.335000000    -4.088000000     4.225000000
O     3.714000000    -2.527000000     3.459000000
H     3.117000000    -2.568000000     2.712000000
H     3.151000000    -2.310000000     4.203000000
O    -5.089000000     3.353000000     1.687000000
H    -4.889000000     4.266000000     1.481000000
H    -4.971000000     2.889000000     0.859000000
O     5.162000000    -2.368000000     0.286000000
H     4.270000000    -2.315000000     0.629000000
H     5.718000000    -2.117000000     1.025000000
O     2.660000000     4.186000000     0.863000000
H     2.501000000     3.331000000     1.261000000
H     2.695000000     4.792000000     1.603000000
O     5.885000000    -1.585000000    -3.742000000
H     6.534000000    -1.157000000    -4.301000000
H     5.201000000    -0.927000000    -3.623000000
O     0.384000000     0.022000000     6.343000000
H    -0.178000000    -0.403000000     6.991000000
H    -0.221000000     0.506000000     5.781000000
O     6.707000000    -4.171000000    -0.888000000
H     6.163000000    -3.508000000    -0.462000000
H     7.534000000    -4.146000000    -0.406000000
O    -5.793000000     0.449000000    -2.943000000
H    -4.909000000     0.669000000    -3.237000000
H    -6.030000000    -0.324000000    -3.455000000
O     3.729000000    -5.056000000     0.710000000
H     3.248000000    -4.261000000     0.938000000
H     4.620000000    -4.894000000     1.019000000
O     3.341000000     2.974000000    -1.421000000
H     3.173000000     3.670000000    -0.786000000
H     3.242000000     2.164000000    -0.921000000
O     0.243000000    -7.654000000     4.006000000
H     0.236000000    -6.996000000     3.311000000
H    -0.452000000    -7.378000000     4.603000000
O     3.592000000    -2.681000000    -2.135000000
H     3.918000000    -2.573000000    -1.241000000
H     4.333000000    -2.441000000    -2.691000000
O     2.352000000    -1.753000000     5.689000000
H     1.679000000    -1.107000000     5.907000000
H     2.016000000    -2.577000000     6.042000000
O    -0.021000000    -3.029000000     6.824000000
H    -0.131000000    -2.901000000     5.882000000
H    -0.275000000    -3.939000000     6.974000000
O     0.902000000     5.773000000    -0.047000000
H     1.459000000     5.016000000     0.135000000
H     1.499000000     6.429000000    -0.405000000
O     4.320000000     0.401000000    -3.744000000
H     5.047000000     1.010000000    -3.611000000
H     3.780000000     0.499000000    -2.959000000
O     2.103000000     1.630000000     1.924000000
H     1.368000000     1.122000000     1.580000000
H     2.843000000     1.023000000     1.904000000
O     4.499000000     0.329000000    -0.691000000
H     5.448000000     0.444000000    -0.636000000
H     4.336000000    -0.515000000    -0.270000000
O     4.136000000    -0.046000000     2.390000000
H     4.078000000    -0.888000000     2.841000000
H     4.952000000     0.340000000     2.707000000
O    -4.823000000     1.349000000    -0.626000000
H    -4.958000000     0.870000000    -1.444000000
H    -4.153000000     1.999000000    -0.837000000
O    -3.162000000     0.009000000     3.370000000
H    -3.560000000    -0.463000000     2.639000000
H    -3.866000000     0.559000000     3.713000000
O    -3.341000000    -2.927000000    -0.915000000
H    -2.958000000    -3.792000000    -0.768000000
H    -4.213000000    -3.106000000    -1.266000000
O    -1.761000000    -0.998000000    -2.527000000
H    -1.096000000    -0.654000000    -1.931000000
H    -2.127000000    -1.753000000    -2.068000000
