161
-3045.70680
C    -0.287000000     1.092000000    -0.961000000
H    -0.309000000     1.829000000    -1.760000000
C     0.848000000     0.893000000    -0.212000000
H     1.712000000     1.503000000    -0.463000000
C     0.995000000    -0.109000000     0.733000000
C     2.332000000    -0.453000000     1.451000000
H     2.623000000     0.159000000     2.307000000
H     2.425000000    -1.492000000     1.774000000
H     3.168000000    -0.353000000     0.756000000
C    -0.138000000    -0.821000000     1.005000000
H    -0.187000000    -1.451000000     1.889000000
C    -1.314000000    -0.619000000     0.233000000
H    -2.221000000    -1.159000000     0.491000000
C    -1.405000000     0.279000000    -0.759000000
C    -2.453000000     0.251000000    -1.847000000
O    -3.185000000    -0.724000000    -2.027000000
O    -2.610000000     1.174000000    -2.602000000
O     1.102000000     1.490000000    -5.532000000
H     1.860000000     1.661000000    -4.972000000
H     0.417000000     2.064000000    -5.190000000
O     5.549000000    -2.507000000     2.986000000
H     6.268000000    -1.885000000     3.104000000
H     4.847000000    -2.169000000     3.543000000
O     4.553000000     2.606000000    -1.304000000
H     5.191000000     3.250000000    -1.612000000
H     4.067000000     3.062000000    -0.616000000
O     2.965000000     4.202000000     0.522000000
H     3.485000000     4.890000000     0.937000000
H     2.297000000     4.674000000     0.024000000
O    -2.739000000    -3.289000000    -1.456000000
H    -2.961000000    -2.392000000    -1.705000000
H    -3.554000000    -3.778000000    -1.572000000
O     2.511000000    -3.978000000    -0.148000000
H     1.849000000    -3.605000000    -0.730000000
H     3.185000000    -4.316000000    -0.738000000
O     0.174000000    -6.269000000    -0.233000000
H     0.254000000    -5.367000000    -0.542000000
H     0.874000000    -6.740000000    -0.684000000
O     4.094000000     3.494000000     3.518000000
H     4.466000000     4.288000000     3.133000000
H     3.316000000     3.315000000     2.990000000
O     3.612000000    -1.454000000     4.951000000
H     2.765000000    -1.899000000     4.939000000
H     3.792000000    -1.306000000     5.879000000
O    -6.281000000    -3.535000000    -1.240000000
H    -5.961000000    -3.312000000    -0.366000000
H    -5.773000000    -4.307000000    -1.491000000
O    -3.734000000    -1.826000000     3.720000000
H    -3.159000000    -1.061000000     3.696000000
H    -3.142000000    -2.573000000     3.633000000
O    -1.837000000     4.387000000     0.478000000
H    -2.658000000     4.221000000     0.013000000
H    -1.862000000     5.322000000     0.679000000
O    -4.400000000     4.139000000    -5.404000000
H    -5.184000000     3.640000000    -5.172000000
H    -4.422000000     4.902000000    -4.827000000
O     5.704000000    -1.935000000    -0.145000000
H     5.299000000    -2.509000000    -0.795000000
H     5.477000000    -2.330000000     0.697000000
O    -2.690000000    -0.713000000    -5.484000000
H    -2.119000000    -0.458000000    -4.760000000
H    -3.431000000    -0.110000000    -5.429000000
O     2.857000000    -6.316000000     3.098000000
H     2.133000000    -5.718000000     2.913000000
H     3.575000000    -6.002000000     2.550000000
O     1.835000000     4.401000000    -4.257000000
H     2.216000000     4.260000000    -3.391000000
H     2.552000000     4.763000000    -4.778000000
O     7.122000000    -0.723000000     4.424000000
H     7.792000000    -0.069000000     4.225000000
H     6.476000000    -0.252000000     4.950000000
O    -6.840000000     1.017000000     2.325000000
H    -5.941000000     0.902000000     2.018000000
H    -6.748000000     1.351000000     3.217000000
O     0.189000000    -0.655000000    -3.716000000
H    -0.270000000    -0.106000000    -3.081000000
H     1.064000000    -0.271000000    -3.776000000
O    -2.487000000    -5.350000000     0.561000000
H    -1.635000000    -5.591000000     0.197000000
H    -2.755000000    -4.583000000     0.055000000
O    -8.056000000    -0.270000000    -0.751000000
H    -8.513000000     0.178000000    -0.039000000
H    -7.206000000    -0.505000000    -0.380000000
O    -4.626000000     1.646000000     0.776000000
H    -3.770000000     2.038000000     0.950000000
H    -4.847000000     1.937000000    -0.108000000
O     0.622000000     0.763000000     4.814000000
H     0.570000000    -0.185000000     4.689000000
H     1.125000000     0.872000000     5.621000000
O     1.168000000    -4.250000000     2.330000000
H     0.237000000    -4.126000000     2.148000000
H     1.579000000    -4.282000000     1.466000000
O     1.590000000     5.354000000    -1.525000000
H     2.256000000     6.017000000    -1.705000000
H     0.909000000     5.516000000    -2.178000000
O     0.087000000    -3.922000000    -1.471000000
H    -0.160000000    -4.220000000    -2.346000000
H    -0.606000000    -3.309000000    -1.223000000
O     2.813000000     1.155000000    -3.245000000
H     3.178000000     1.212000000    -2.362000000
H     3.285000000     0.430000000    -3.654000000
O     1.295000000    -2.775000000     4.698000000
H     0.380000000    -2.937000000     4.929000000
H     1.513000000    -3.470000000     4.077000000
O    -1.780000000    -3.849000000     3.266000000
H    -2.229000000    -4.573000000     2.831000000
H    -1.641000000    -4.156000000     4.162000000
O    -6.640000000     2.758000000    -4.382000000
H    -7.111000000     2.007000000    -4.021000000
H    -7.277000000     3.472000000    -4.363000000
O    -5.622000000    -2.738000000     1.604000000
H    -5.355000000    -2.096000000     0.946000000
H    -5.205000000    -2.440000000     2.412000000
O    -5.403000000    -3.401000000    -4.592000000
H    -6.008000000    -2.806000000    -4.148000000
H    -4.637000000    -2.862000000    -4.787000000
O    -3.993000000     3.120000000    -1.268000000
H    -4.095000000     3.947000000    -1.739000000
H    -3.584000000     2.532000000    -1.902000000
O    -0.758000000     4.710000000    -5.154000000
H     0.055000000     4.394000000    -4.759000000
H    -1.391000000     4.010000000    -4.991000000
O     1.018000000     3.215000000     3.570000000
H     0.619000000     3.036000000     2.719000000
H     0.942000000     2.389000000     4.049000000
O    -1.982000000     2.394000000    -7.771000000
H    -1.902000000     2.460000000    -6.819000000
H    -2.911000000     2.216000000    -7.921000000
O    -2.225000000     2.561000000    -4.926000000
H    -3.166000000     2.727000000    -4.994000000
H    -2.114000000     2.166000000    -4.061000000
O     8.180000000    -1.901000000     0.015000000
H     7.258000000    -1.749000000    -0.189000000
H     8.439000000    -1.139000000     0.534000000
O     4.752000000     1.215000000     4.934000000
H     4.528000000     2.034000000     4.492000000
H     4.044000000     0.615000000     4.699000000
O     6.245000000     1.062000000     0.548000000
H     5.930000000     0.201000000     0.820000000
H     5.719000000     1.278000000    -0.222000000
O    -5.081000000    -0.145000000    -3.947000000
H    -5.380000000     0.760000000    -3.861000000
H    -4.500000000    -0.278000000    -3.198000000
O    -2.560000000     0.839000000     4.122000000
H    -2.014000000     1.296000000     4.761000000
H    -2.341000000     1.248000000     3.284000000
O    -4.907000000    -0.949000000    -0.156000000
H    -4.274000000    -0.841000000    -0.866000000
H    -4.894000000    -0.111000000     0.307000000
O    -1.402000000     2.109000000     1.975000000
H    -1.602000000     2.732000000     1.277000000
H    -1.189000000     1.296000000     1.516000000
O    -7.313000000    -2.001000000    -3.336000000
H    -7.004000000    -2.501000000    -2.579000000
H    -7.038000000    -1.102000000    -3.157000000
O    -0.922000000    -4.566000000    -3.957000000
H    -1.825000000    -4.424000000    -4.239000000
H    -0.390000000    -4.186000000    -4.657000000
O    -2.684000000    -3.228000000    -6.024000000
H    -2.725000000    -3.356000000    -6.972000000
H    -2.554000000    -2.286000000    -5.915000000
