161
-3030.69889
C    -0.933000000    -1.110000000    -0.515000000
H    -1.795000000    -1.767000000    -0.430000000
C    -1.263000000     0.221000000    -0.242000000
H    -2.304000000     0.523000000    -0.169000000
C    -0.307000000     1.184000000     0.111000000
C    -0.675000000     2.617000000     0.388000000
H    -0.116000000     3.330000000    -0.221000000
H    -1.725000000     2.682000000     0.096000000
H    -0.594000000     2.978000000     1.415000000
C     1.040000000     0.835000000     0.137000000
H     1.833000000     1.556000000     0.313000000
C     1.321000000    -0.542000000     0.087000000
H     2.311000000    -0.971000000     0.226000000
C     0.362000000    -1.537000000    -0.289000000
C     0.815000000    -2.939000000    -0.264000000
O     1.976000000    -3.211000000    -0.625000000
O     0.058000000    -3.842000000    -0.019000000
O     2.922000000    -5.798000000    -0.181000000
H     2.104000000    -6.253000000    -0.383000000
H     2.776000000    -4.900000000    -0.476000000
O     2.066000000    -3.739000000     3.209000000
H     2.227000000    -4.663000000     3.400000000
H     1.937000000    -3.709000000     2.261000000
O    -3.835000000     2.304000000     2.107000000
H    -3.174000000     1.676000000     2.398000000
H    -3.352000000     3.123000000     1.991000000
O    -1.015000000     7.017000000    -2.031000000
H    -1.338000000     6.223000000    -2.456000000
H    -1.442000000     7.732000000    -2.502000000
O     1.253000000     0.046000000     4.123000000
H     1.689000000    -0.544000000     4.737000000
H     0.872000000    -0.534000000     3.463000000
O     4.842000000    -4.930000000    -2.954000000
H     5.140000000    -5.586000000    -2.323000000
H     4.034000000    -5.294000000    -3.316000000
O     0.878000000    -7.763000000    -0.374000000
H     1.269000000    -8.636000000    -0.345000000
H     0.402000000    -7.685000000     0.453000000
O    -3.099000000     1.939000000    -3.630000000
H    -4.014000000     2.214000000    -3.571000000
H    -3.107000000     1.020000000    -3.361000000
O     1.444000000     3.727000000     2.519000000
H     2.223000000     3.750000000     3.074000000
H     1.491000000     2.879000000     2.076000000
O    -2.414000000    -7.165000000    -1.418000000
H    -2.817000000    -6.474000000    -0.893000000
H    -1.567000000    -6.805000000    -1.680000000
O    -0.726000000    -7.753000000     2.001000000
H    -1.054000000    -8.254000000     1.254000000
H    -0.483000000    -8.417000000     2.647000000
O    -0.377000000    -6.195000000     4.598000000
H     0.213000000    -6.948000000     4.634000000
H    -0.556000000    -6.076000000     3.665000000
O     2.172000000    -3.009000000    -3.172000000
H     3.110000000    -3.198000000    -3.188000000
H     1.894000000    -3.251000000    -2.289000000
O    -4.369000000    -1.600000000     3.440000000
H    -3.917000000    -2.300000000     2.969000000
H    -3.796000000    -1.401000000     4.180000000
O    -0.092000000    -5.736000000    -1.888000000
H    -0.026000000    -5.001000000    -1.279000000
H     0.279000000    -6.478000000    -1.409000000
O     2.005000000     4.699000000    -3.305000000
H     2.248000000     4.620000000    -2.383000000
H     2.772000000     4.383000000    -3.783000000
O     1.587000000    -2.162000000    -5.710000000
H     1.860000000    -2.692000000    -4.961000000
H     2.210000000    -1.435000000    -5.729000000
O    -5.431000000     2.071000000    -0.089000000
H    -4.823000000     1.785000000     0.592000000
H    -4.976000000     2.788000000    -0.531000000
O    -2.055000000     4.593000000    -3.509000000
H    -2.303000000     3.671000000    -3.450000000
H    -2.652000000     4.961000000    -4.161000000
O     1.058000000     6.250000000     1.170000000
H     1.418000000     7.098000000     1.431000000
H     1.352000000     5.645000000     1.851000000
O    -1.454000000     6.618000000     0.481000000
H    -1.473000000     6.605000000    -0.475000000
H    -0.562000000     6.352000000     0.706000000
O    -1.320000000     5.050000000     6.135000000
H    -1.128000000     4.360000000     5.500000000
H    -1.823000000     5.697000000     5.641000000
O    -4.094000000    -3.462000000    -4.568000000
H    -3.574000000    -3.648000000    -3.787000000
H    -4.387000000    -2.558000000    -4.451000000
O    -3.024000000    -4.034000000     3.053000000
H    -2.144000000    -4.229000000     2.732000000
H    -3.044000000    -4.404000000     3.936000000
O     5.926000000     1.357000000     1.216000000
H     5.127000000     1.429000000     1.739000000
H     6.230000000     0.462000000     1.366000000
O     4.647000000    -2.721000000    -0.257000000
H     4.592000000    -2.012000000     0.384000000
H     3.737000000    -2.916000000    -0.478000000
O     5.452000000    -5.009000000     0.659000000
H     5.459000000    -4.090000000     0.391000000
H     4.791000000    -5.417000000     0.099000000
O    -0.727000000    -1.941000000     2.829000000
H    -0.379000000    -2.583000000     2.210000000
H    -1.061000000    -2.466000000     3.556000000
O     5.563000000     2.577000000    -1.373000000
H     5.409000000     1.959000000    -0.658000000
H     4.931000000     2.326000000    -2.047000000
O    -3.448000000     5.338000000     2.105000000
H    -4.088000000     5.625000000     1.453000000
H    -2.607000000     5.385000000     1.651000000
O    -0.996000000    -5.432000000    -4.585000000
H    -1.032000000    -4.533000000    -4.910000000
H    -0.316000000    -5.417000000    -3.912000000
O    -3.041000000    -5.159000000     0.200000000
H    -3.672000000    -4.613000000     0.670000000
H    -2.283000000    -5.205000000     0.784000000
O     3.888000000     2.402000000     3.588000000
H     3.965000000     1.513000000     3.933000000
H     4.602000000     2.884000000     4.005000000
O     6.565000000    -2.631000000    -2.378000000
H     5.963000000    -2.178000000    -1.787000000
H     6.018000000    -3.275000000    -2.829000000
O     2.640000000    -6.399000000     2.976000000
H     3.189000000    -6.972000000     3.512000000
H     2.981000000    -6.504000000     2.087000000
O    -0.660000000     2.919000000     4.327000000
H    -0.880000000     2.159000000     3.788000000
H     0.036000000     3.363000000     3.843000000
O     2.755000000    -2.057000000     5.234000000
H     2.642000000    -2.451000000     4.369000000
H     3.105000000    -2.764000000     5.776000000
O     0.781000000    -0.317000000    -3.189000000
H     0.618000000    -0.248000000    -2.249000000
H     1.057000000    -1.224000000    -3.318000000
O    -1.865000000     0.635000000     3.405000000
H    -2.420000000     0.259000000     4.089000000
H    -1.426000000    -0.119000000     3.012000000
O     3.796000000     0.873000000    -3.093000000
H     3.458000000     0.800000000    -3.985000000
H     3.055000000     0.632000000    -2.536000000
O    -6.152000000    -2.771000000    -0.501000000
H    -6.761000000    -2.097000000    -0.802000000
H    -6.543000000    -3.594000000    -0.794000000
O     2.484000000     5.633000000    -0.866000000
H     3.220000000     5.764000000    -0.268000000
H     1.720000000     5.562000000    -0.293000000
O    -5.673000000     0.192000000    -1.804000000
H    -6.523000000    -0.248000000    -1.830000000
H    -5.747000000     0.814000000    -1.080000000
O     4.518000000    -1.282000000     2.064000000
H     5.421000000    -1.164000000     2.359000000
H     4.212000000    -2.058000000     2.535000000
O    -0.675000000    -5.033000000     1.990000000
H    -0.499000000    -5.961000000     1.834000000
H    -0.298000000    -4.587000000     1.231000000
O    -3.720000000    -3.521000000    -1.751000000
H    -4.481000000    -3.181000000    -1.280000000
H    -3.371000000    -4.205000000    -1.180000000
O    -4.252000000     3.951000000    -1.631000000
H    -3.350000000     4.140000000    -1.887000000
H    -4.677000000     3.670000000    -2.441000000
O    -3.481000000    -0.952000000    -2.783000000
H    -3.492000000    -1.822000000    -2.386000000
H    -4.302000000    -0.549000000    -2.500000000
