161
-3061.87631
C    -0.806000000    -1.227000000     0.299000000
H    -1.427000000    -2.069000000     0.595000000
C    -1.048000000     0.020000000     0.814000000
H    -1.789000000     0.136000000     1.601000000
C    -0.170000000     1.062000000     0.531000000
C    -0.406000000     2.470000000     1.092000000
H    -1.452000000     2.763000000     1.204000000
H     0.042000000     2.612000000     2.077000000
H     0.067000000     3.214000000     0.447000000
C     0.839000000     0.863000000    -0.408000000
H     1.515000000     1.699000000    -0.570000000
C     1.074000000    -0.376000000    -0.975000000
H     1.917000000    -0.554000000    -1.638000000
C     0.256000000    -1.426000000    -0.610000000
C     0.376000000    -2.704000000    -1.349000000
O     1.231000000    -2.766000000    -2.246000000
O    -0.224000000    -3.709000000    -0.856000000
O    -4.832000000    -1.937000000     3.184000000
H    -4.122000000    -2.574000000     3.105000000
H    -5.112000000    -1.778000000     2.283000000
O     3.856000000    -2.754000000    -1.797000000
H     3.982000000    -2.074000000    -1.134000000
H     2.960000000    -2.622000000    -2.108000000
O    -0.217000000     8.092000000    -0.774000000
H    -0.399000000     7.414000000    -0.124000000
H    -0.985000000     8.090000000    -1.345000000
O    -5.727000000     5.937000000     2.306000000
H    -6.403000000     5.488000000     1.797000000
H    -5.067000000     5.265000000     2.473000000
O    -0.294000000    -6.689000000     3.459000000
H     0.509000000    -7.210000000     3.461000000
H    -0.150000000    -6.030000000     2.779000000
O     0.979000000     0.997000000     4.104000000
H     0.808000000     0.182000000     3.631000000
H     0.210000000     1.540000000     3.932000000
O    -2.474000000    -2.006000000    -2.312000000
H    -2.729000000    -2.841000000    -1.921000000
H    -2.790000000    -1.346000000    -1.696000000
O    -4.469000000     0.198000000     4.997000000
H    -3.984000000    -0.242000000     5.695000000
H    -4.891000000    -0.513000000     4.514000000
O    -0.735000000    -1.037000000    -4.230000000
H    -1.276000000    -1.298000000    -3.485000000
H    -0.361000000    -0.195000000    -3.971000000
O    -3.591000000     0.114000000    -0.802000000
H    -3.765000000     0.730000000    -0.090000000
H    -3.139000000     0.636000000    -1.465000000
O     1.882000000     6.284000000     0.706000000
H     0.960000000     6.069000000     0.847000000
H     1.915000000     6.622000000    -0.189000000
O     0.913000000     5.373000000     3.395000000
H     0.442000000     6.200000000     3.289000000
H     1.740000000     5.620000000     3.811000000
O     2.715000000    -4.673000000    -6.986000000
H     2.809000000    -4.323000000    -7.872000000
H     2.514000000    -3.909000000    -6.447000000
O    -1.306000000    -7.640000000    -1.826000000
H    -1.464000000    -7.196000000    -2.659000000
H    -1.965000000    -8.334000000    -1.797000000
O    -5.632000000    -1.914000000    -2.154000000
H    -4.772000000    -2.005000000    -2.564000000
H    -6.154000000    -1.436000000    -2.798000000
O     2.179000000    -3.527000000     2.718000000
H     1.879000000    -3.132000000     3.536000000
H     2.992000000    -3.065000000     2.513000000
O     1.670000000    -7.354000000    -4.826000000
H     2.367000000    -7.952000000    -5.096000000
H     2.039000000    -6.876000000    -4.083000000
O     0.554000000    -6.319000000    -0.452000000
H    -0.162000000    -6.861000000    -0.783000000
H     0.232000000    -5.421000000    -0.533000000
O    -3.387000000    -5.744000000    -3.699000000
H    -3.181000000    -5.308000000    -2.872000000
H    -3.962000000    -6.468000000    -3.453000000
O    -3.010000000    -6.331000000     1.047000000
H    -2.484000000    -7.121000000     1.167000000
H    -3.563000000    -6.290000000     1.828000000
O    -2.682000000     1.386000000    -3.064000000
H    -3.134000000     2.214000000    -3.225000000
H    -3.211000000     0.732000000    -3.519000000
O    -0.153000000     1.954000000    -4.253000000
H    -0.940000000     1.648000000    -3.803000000
H     0.241000000     2.581000000    -3.646000000
O    -1.048000000    -1.641000000     4.470000000
H    -1.293000000    -1.950000000     3.598000000
H    -1.875000000    -1.603000000     4.951000000
O     4.768000000     0.772000000    -2.726000000
H     4.406000000     0.384000000    -3.523000000
H     5.710000000     0.823000000    -2.890000000
O     4.960000000    -0.838000000    -0.298000000
H     5.577000000    -0.220000000     0.095000000
H     4.519000000    -0.334000000    -0.982000000
O    -4.115000000     2.395000000     0.857000000
H    -5.031000000     2.397000000     1.135000000
H    -3.636000000     2.053000000     1.612000000
O    -3.449000000     4.919000000     4.031000000
H    -4.225000000     4.359000000     4.063000000
H    -2.713000000     4.308000000     4.037000000
O     6.297000000    -2.146000000    -2.730000000
H     6.218000000    -1.828000000    -1.830000000
H     5.634000000    -2.833000000    -2.800000000
O     1.617000000    -5.452000000    -2.704000000
H     1.536000000    -4.501000000    -2.629000000
H     1.550000000    -5.769000000    -1.803000000
O    -2.707000000     4.333000000    -0.437000000
H    -3.054000000     4.354000000    -1.329000000
H    -3.033000000     3.510000000    -0.073000000
O    -5.604000000    -1.416000000     0.581000000
H    -5.748000000    -1.701000000    -0.321000000
H    -5.032000000    -0.653000000     0.503000000
O     4.716000000    -2.068000000     2.134000000
H     4.626000000    -1.737000000     1.241000000
H     5.620000000    -2.377000000     2.186000000
O     0.835000000     4.075000000    -2.298000000
H     1.474000000     4.752000000    -2.519000000
H     0.073000000     4.559000000    -1.980000000
O    -1.026000000     3.232000000     4.309000000
H    -0.366000000     3.824000000     3.950000000
H    -0.900000000     3.278000000     5.257000000
O    -3.202000000     1.634000000     3.378000000
H    -3.694000000     1.075000000     3.979000000
H    -2.569000000     2.086000000     3.936000000
O     3.421000000    -0.367000000    -4.894000000
H     2.741000000     0.304000000    -4.953000000
H     2.944000000    -1.196000000    -4.933000000
O     5.088000000     2.849000000    -0.665000000
H     4.424000000     2.362000000    -1.152000000
H     4.615000000     3.219000000     0.081000000
O     4.970000000    -5.297000000    -0.687000000
H     4.337000000    -6.015000000    -0.704000000
H     4.450000000    -4.515000000    -0.876000000
O     3.905000000     4.394000000     1.435000000
H     3.247000000     5.044000000     1.186000000
H     3.458000000     3.830000000     2.065000000
O    -2.615000000    -4.762000000    -1.172000000
H    -1.738000000    -4.401000000    -1.044000000
H    -2.894000000    -5.030000000    -0.296000000
O     3.414000000     2.257000000     3.954000000
H     3.305000000     2.930000000     4.626000000
H     2.601000000     1.753000000     3.987000000
O     1.584000000    -2.170000000     5.177000000
H     0.720000000    -2.057000000     4.781000000
H     1.405000000    -2.294000000     6.109000000
O     2.937000000    -7.171000000     0.327000000
H     3.093000000    -6.850000000     1.215000000
H     2.010000000    -6.991000000     0.166000000
O    -0.122000000    -4.308000000     1.946000000
H    -0.187000000    -3.999000000     1.043000000
H     0.680000000    -3.904000000     2.280000000
O     0.270000000    -5.416000000    -6.216000000
H     1.082000000    -4.930000000    -6.356000000
H     0.548000000    -6.236000000    -5.809000000
O    -1.000000000     5.928000000     0.773000000
H    -1.051000000     5.704000000     1.702000000
H    -1.645000000     5.360000000     0.353000000
O    -2.792000000    -3.632000000     2.968000000
H    -1.911000000    -3.891000000     2.698000000
H    -3.258000000    -4.460000000     3.089000000
O     1.595000000    -2.533000000    -4.893000000
H     1.597000000    -2.756000000    -3.962000000
H     0.706000000    -2.223000000    -5.063000000
