161
-3056.14888
C    -0.131000000    -1.244000000    -0.905000000
H    -0.363000000    -2.165000000    -1.434000000
C    -0.140000000    -1.234000000     0.465000000
H    -0.304000000    -2.171000000     0.991000000
C    -0.024000000    -0.070000000     1.210000000
C     0.052000000    -0.068000000     2.754000000
H     0.546000000     0.887000000     2.950000000
H    -0.929000000     0.125000000     3.193000000
H     0.636000000    -0.871000000     3.208000000
C     0.012000000     1.192000000     0.584000000
H    -0.161000000     2.120000000     1.123000000
C     0.161000000     1.218000000    -0.827000000
H     0.265000000     2.168000000    -1.345000000
C     0.080000000    -0.038000000    -1.568000000
C     0.116000000     0.008000000    -3.052000000
O     0.553000000     1.018000000    -3.617000000
O    -0.374000000    -0.876000000    -3.723000000
O     2.768000000    -0.333000000     6.435000000
H     2.576000000     0.240000000     7.178000000
H     2.485000000     0.165000000     5.669000000
O    -5.257000000    -1.904000000     2.975000000
H    -6.197000000    -2.068000000     3.050000000
H    -4.992000000    -1.627000000     3.852000000
O     1.257000000     3.116000000    -5.002000000
H     0.908000000     3.144000000    -5.892000000
H     0.920000000     2.298000000    -4.637000000
O     1.063000000    -3.489000000     2.829000000
H     0.333000000    -3.397000000     3.442000000
H     1.786000000    -3.022000000     3.246000000
O     1.277000000     4.902000000    -2.387000000
H     0.411000000     5.240000000    -2.613000000
H     1.400000000     4.150000000    -2.966000000
O    -2.373000000    -1.022000000    -6.723000000
H    -2.216000000    -1.963000000    -6.651000000
H    -2.513000000    -0.732000000    -5.821000000
O    -0.120000000    -5.586000000    -5.466000000
H     0.690000000    -6.030000000    -5.213000000
H    -0.248000000    -4.918000000    -4.793000000
O    -0.589000000    -0.892000000     7.369000000
H     0.243000000    -0.421000000     7.398000000
H    -1.234000000    -0.225000000     7.135000000
O    -3.283000000    -4.732000000    -3.107000000
H    -3.152000000    -5.368000000    -2.404000000
H    -2.557000000    -4.115000000    -3.010000000
O    -2.875000000     3.454000000     0.211000000
H    -2.116000000     3.183000000    -0.306000000
H    -2.608000000     3.317000000     1.119000000
O    -0.354000000     0.914000000    -6.119000000
H    -0.524000000     0.091000000    -6.577000000
H     0.039000000     0.648000000    -5.287000000
O     3.532000000    -5.327000000    -1.653000000
H     2.578000000    -5.398000000    -1.677000000
H     3.812000000    -6.042000000    -1.082000000
O    -2.460000000     1.040000000     7.363000000
H    -3.172000000     1.661000000     7.210000000
H    -2.503000000     0.852000000     8.301000000
O     4.921000000     2.150000000    -4.264000000
H     4.057000000     1.798000000    -4.476000000
H     5.523000000     1.663000000    -4.826000000
O     0.820000000    -1.994000000    -5.991000000
H     1.267000000    -2.780000000    -5.676000000
H     0.401000000    -1.628000000    -5.212000000
O    -1.216000000    -3.548000000     4.305000000
H    -1.838000000    -3.466000000     5.028000000
H    -1.655000000    -3.132000000     3.564000000
O    -1.838000000     3.781000000    -5.395000000
H    -0.958000000     3.533000000    -5.679000000
H    -2.233000000     4.186000000    -6.167000000
O    -5.634000000    -1.406000000    -3.195000000
H    -4.744000000    -1.111000000    -2.999000000
H    -6.152000000    -0.602000000    -3.220000000
O     2.357000000    -3.197000000    -3.859000000
H     3.008000000    -3.772000000    -3.456000000
H     2.618000000    -2.316000000    -3.590000000
O    -2.837000000     1.385000000    -4.755000000
H    -1.927000000     1.282000000    -5.033000000
H    -3.121000000     2.202000000    -5.164000000
O    -2.297000000    -4.326000000    -0.403000000
H    -3.228000000    -4.209000000    -0.213000000
H    -2.248000000    -5.168000000    -0.855000000
O    -2.044000000     3.600000000    -2.600000000
H    -1.840000000     3.497000000    -3.529000000
H    -1.961000000     4.540000000    -2.439000000
O    -0.298000000    -3.644000000    -3.657000000
H     0.658000000    -3.691000000    -3.640000000
H    -0.493000000    -2.709000000    -3.604000000
O    -1.388000000    -3.679000000    -7.515000000
H    -1.044000000    -4.098000000    -6.726000000
H    -2.152000000    -4.204000000    -7.751000000
O     3.276000000    -0.964000000    -2.179000000
H     3.141000000    -1.535000000    -1.423000000
H     4.067000000    -0.468000000    -1.967000000
O     0.813000000     3.178000000     4.388000000
H     0.899000000     4.130000000     4.334000000
H     1.490000000     2.842000000     3.801000000
O    -5.048000000     1.011000000     1.850000000
H    -4.317000000     0.841000000     1.256000000
H    -4.897000000     0.424000000     2.591000000
O     3.031000000    -0.609000000    -7.472000000
H     2.561000000    -1.430000000    -7.326000000
H     3.086000000    -0.207000000    -6.605000000
O     1.646000000     6.118000000     0.252000000
H     1.263000000     6.990000000     0.157000000
H     1.533000000     5.712000000    -0.607000000
O    -4.810000000     0.012000000     5.159000000
H    -5.593000000     0.520000000     5.375000000
H    -4.264000000     0.070000000     5.944000000
O    -4.973000000     2.891000000    -1.722000000
H    -5.034000000     3.227000000    -0.828000000
H    -4.039000000     2.735000000    -1.857000000
O    -0.461000000    -5.535000000     1.670000000
H    -1.244000000    -5.030000000     1.451000000
H     0.175000000    -4.879000000     1.954000000
O     0.879000000     2.831000000    -7.694000000
H     0.463000000     2.013000000    -7.423000000
H     0.555000000     2.981000000    -8.582000000
O     3.042000000     2.405000000     2.951000000
H     3.987000000     2.485000000     3.083000000
H     2.935000000     1.578000000     2.481000000
O    -2.157000000     3.304000000     2.712000000
H    -1.588000000     2.590000000     3.000000000
H    -2.886000000     3.294000000     3.332000000
O     1.476000000    -3.017000000     6.459000000
H     2.074000000    -2.298000000     6.257000000
H     0.631000000    -2.592000000     6.605000000
O    -3.105000000     0.039000000     0.217000000
H    -2.187000000     0.271000000     0.080000000
H    -3.407000000    -0.260000000    -0.641000000
O    -1.785000000     6.144000000     1.727000000
H    -2.322000000     5.362000000     1.600000000
H    -1.198000000     5.917000000     2.449000000
O     3.353000000    -2.827000000    -0.279000000
H     2.648000000    -3.075000000     0.319000000
H     3.485000000    -3.599000000    -0.828000000
O    -2.920000000    -0.812000000    -2.941000000
H    -3.114000000    -0.017000000    -3.437000000
H    -1.994000000    -0.981000000    -3.111000000
O     3.153000000    -0.171000000     1.363000000
H     3.946000000    -0.147000000     0.827000000
H     2.459000000     0.129000000     0.776000000
O     4.341000000    -4.547000000     4.439000000
H     3.926000000    -3.897000000     3.872000000
H     5.044000000    -4.917000000     3.905000000
O    -2.806000000    -2.683000000     1.851000000
H    -3.745000000    -2.693000000     2.037000000
H    -2.680000000    -1.911000000     1.298000000
O     0.824000000    -5.591000000    -1.513000000
H     0.116000000    -5.325000000    -2.100000000
H     0.388000000    -5.784000000    -0.683000000
O     3.290000000    -1.893000000     3.491000000
H     2.968000000    -1.280000000     2.830000000
H     3.845000000    -1.360000000     4.061000000
O     0.555000000     6.119000000     2.892000000
H     1.098000000     6.248000000     3.669000000
H     1.179000000     6.077000000     2.167000000
O     3.096000000     0.363000000    -4.941000000
H     3.113000000    -0.011000000    -4.060000000
H     2.296000000     0.887000000    -4.963000000
O     0.146000000     1.847000000     6.530000000
H     0.267000000     2.241000000     5.666000000
H    -0.788000000     1.950000000     6.711000000
