161
-3028.68265
C     0.577000000    -1.268000000    -0.431000000
H     1.023000000    -2.199000000    -0.772000000
C     0.602000000    -0.107000000    -1.186000000
H     1.068000000    -0.077000000    -2.167000000
C     0.073000000     1.102000000    -0.654000000
C     0.086000000     2.435000000    -1.379000000
H     0.293000000     3.261000000    -0.695000000
H     0.880000000     2.459000000    -2.128000000
H    -0.924000000     2.518000000    -1.786000000
C    -0.558000000     0.977000000     0.589000000
H    -1.078000000     1.884000000     0.886000000
C    -0.634000000    -0.197000000     1.325000000
H    -1.211000000    -0.417000000     2.219000000
C     0.014000000    -1.315000000     0.829000000
C     0.001000000    -2.641000000     1.604000000
O    -0.479000000    -2.767000000     2.759000000
O     0.275000000    -3.654000000     0.985000000
O     3.287000000     4.534000000    -1.716000000
H     3.919000000     4.641000000    -2.426000000
H     2.618000000     5.197000000    -1.889000000
O    -0.946000000    -5.744000000     0.005000000
H    -0.549000000    -5.715000000    -0.865000000
H    -0.625000000    -4.955000000     0.441000000
O    -0.898000000     5.582000000    -4.856000000
H    -0.028000000     5.907000000    -4.625000000
H    -1.435000000     5.765000000    -4.085000000
O     2.279000000    -5.181000000    -0.321000000
H     1.753000000    -5.765000000    -0.869000000
H     1.637000000    -4.706000000     0.207000000
O    -3.412000000    -1.985000000     5.483000000
H    -3.144000000    -2.497000000     4.720000000
H    -4.323000000    -1.752000000     5.307000000
O     3.416000000    -7.862000000     0.530000000
H     3.621000000    -7.006000000     0.905000000
H     2.471000000    -7.956000000     0.653000000
O     2.643000000     2.739000000    -5.261000000
H     1.720000000     2.489000000    -5.309000000
H     3.118000000     1.910000000    -5.300000000
O    -0.468000000    -4.809000000     5.162000000
H     0.252000000    -4.697000000     4.541000000
H    -0.983000000    -5.532000000     4.804000000
O    -1.563000000    -3.300000000    -2.711000000
H    -1.040000000    -4.069000000    -2.484000000
H    -0.969000000    -2.748000000    -3.219000000
O     2.197000000    -6.969000000     5.260000000
H     1.744000000    -7.490000000     5.922000000
H     1.533000000    -6.359000000     4.939000000
O     1.063000000    -7.200000000     2.512000000
H     1.099000000    -6.258000000     2.675000000
H     0.275000000    -7.492000000     2.968000000
O    -1.668000000    -3.626000000     7.587000000
H    -1.300000000    -4.207000000     6.921000000
H    -2.430000000    -4.099000000     7.921000000
O    -2.228000000    -8.123000000    -0.350000000
H    -2.365000000    -8.069000000    -1.296000000
H    -1.963000000    -7.239000000    -0.096000000
O    -2.315000000     2.036000000     4.529000000
H    -2.569000000     1.152000000     4.793000000
H    -2.584000000     2.099000000     3.612000000
O     4.342000000    -0.301000000     2.678000000
H     3.624000000     0.120000000     2.204000000
H     5.133000000     0.108000000     2.327000000
O    -2.929000000     7.454000000    -0.795000000
H    -3.884000000     7.460000000    -0.862000000
H    -2.639000000     6.937000000    -1.546000000
O     0.263000000    -1.741000000    -4.653000000
H    -0.056000000    -2.420000000    -5.249000000
H     1.200000000    -1.917000000    -4.570000000
O     4.012000000     4.391000000     1.383000000
H     3.926000000     4.305000000     0.433000000
H     3.711000000     5.280000000     1.570000000
O     1.878000000     6.805000000    -0.398000000
H     1.274000000     7.278000000    -0.969000000
H     1.320000000     6.434000000     0.286000000
O    -4.928000000    -2.880000000     2.760000000
H    -4.164000000    -3.407000000     2.526000000
H    -5.334000000    -3.355000000     3.485000000
O     2.273000000    -5.847000000    -3.886000000
H     2.881000000    -5.115000000    -3.990000000
H     2.798000000    -6.539000000    -3.482000000
O     1.800000000    -4.575000000     3.145000000
H     1.067000000    -4.022000000     2.876000000
H     2.199000000    -4.104000000     3.877000000
O     3.533000000     1.839000000    -1.198000000
H     3.645000000     2.750000000    -1.470000000
H     3.377000000     1.889000000    -0.254000000
O    -3.394000000     5.133000000    -2.680000000
H    -3.938000000     5.188000000    -1.895000000
H    -3.993000000     5.331000000    -3.401000000
O    -2.697000000    -4.217000000     2.175000000
H    -2.445000000    -5.124000000     1.998000000
H    -1.901000000    -3.808000000     2.513000000
O     0.395000000     0.023000000    -6.967000000
H     0.448000000    -0.727000000    -6.374000000
H     0.014000000     0.722000000    -6.436000000
O     2.871000000    -2.278000000     4.466000000
H     2.209000000    -1.630000000     4.226000000
H     3.646000000    -2.027000000     3.963000000
O     0.511000000     6.052000000     2.078000000
H     1.050000000     5.263000000     2.025000000
H     1.110000000     6.731000000     2.390000000
O    -3.385000000    -3.493000000    -0.548000000
H    -2.696000000    -3.436000000    -1.210000000
H    -2.934000000    -3.797000000     0.240000000
O     2.045000000     5.617000000    -5.896000000
H     2.771000000     6.139000000    -5.555000000
H     2.234000000     4.725000000    -5.607000000
O    -0.025000000    -5.562000000    -2.489000000
H     0.783000000    -5.699000000    -2.984000000
H    -0.634000000    -6.212000000    -2.838000000
O    -4.335000000     4.519000000     0.126000000
H    -3.452000000     4.811000000     0.352000000
H    -4.326000000     3.577000000     0.292000000
O    -0.252000000     2.406000000    -5.603000000
H     0.025000000     3.212000000    -6.039000000
H    -1.036000000     2.657000000    -5.114000000
O    -4.784000000     1.321000000    -2.693000000
H    -5.172000000     2.107000000    -2.310000000
H    -4.456000000     0.826000000    -1.942000000
O    -0.689000000    -1.251000000     5.135000000
H    -1.504000000    -1.601000000     5.496000000
H    -0.557000000    -1.742000000     4.323000000
O    -1.847000000     5.577000000     0.786000000
H    -1.121000000     5.760000000     1.383000000
H    -2.170000000     6.441000000     0.529000000
O     1.116000000     3.027000000     3.007000000
H     0.162000000     3.092000000     2.958000000
H     1.340000000     3.423000000     3.849000000
O     0.674000000    -8.407000000     0.014000000
H     0.806000000    -8.002000000     0.872000000
H    -0.262000000    -8.308000000    -0.156000000
O     4.485000000    -0.492000000    -2.718000000
H     4.366000000    -1.393000000    -2.418000000
H     4.241000000     0.045000000    -1.964000000
O    -5.211000000     1.727000000     0.340000000
H    -4.817000000     0.881000000     0.128000000
H    -6.149000000     1.546000000     0.399000000
O    -2.937000000     2.938000000    -4.233000000
H    -3.653000000     2.410000000    -3.878000000
H    -2.877000000     3.688000000    -3.642000000
O    -2.294000000    -0.045000000    -3.913000000
H    -1.404000000    -0.371000000    -4.048000000
H    -2.185000000     0.893000000    -3.761000000
O     3.998000000     0.015000000    -5.331000000
H     4.258000000    -0.386000000    -4.502000000
H     3.724000000    -0.721000000    -5.878000000
O     3.920000000    -3.002000000    -1.946000000
H     3.969000000    -3.437000000    -2.797000000
H     4.266000000    -3.645000000    -1.328000000
O     5.124000000    -4.442000000     0.698000000
H     4.172000000    -4.405000000     0.602000000
H     5.265000000    -4.619000000     1.628000000
O    -3.499000000    -0.316000000    -0.107000000
H    -3.705000000    -1.180000000     0.251000000
H    -2.585000000    -0.168000000     0.137000000
O     2.669000000     1.378000000     1.580000000
H     2.360000000     2.216000000     1.926000000
H     1.941000000     1.055000000     1.049000000
O    -0.459000000    -1.242000000     7.999000000
H    -0.911000000    -2.085000000     7.967000000
H    -0.270000000    -1.036000000     7.084000000
