161
-3028.01070
C     0.611000000    -1.119000000    -0.605000000
H     0.970000000    -2.062000000    -1.008000000
C    -0.572000000    -1.133000000     0.153000000
H    -0.976000000    -2.079000000     0.503000000
C    -1.102000000     0.052000000     0.620000000
C    -2.298000000    -0.007000000     1.508000000
H    -3.179000000    -0.045000000     0.863000000
H    -2.340000000    -0.852000000     2.199000000
H    -2.409000000     0.849000000     2.177000000
C    -0.400000000     1.250000000     0.327000000
H    -0.689000000     2.212000000     0.741000000
C     0.793000000     1.249000000    -0.453000000
H     1.357000000     2.174000000    -0.539000000
C     1.317000000     0.031000000    -0.856000000
C     2.651000000    -0.103000000    -1.675000000
O     3.184000000     0.821000000    -2.200000000
O     3.079000000    -1.241000000    -1.758000000
O    -6.915000000    -2.359000000    -1.320000000
H    -7.672000000    -2.657000000    -0.815000000
H    -6.160000000    -2.589000000    -0.778000000
O     5.093000000     2.454000000    -1.376000000
H     5.129000000     3.089000000    -2.092000000
H     4.370000000     1.872000000    -1.608000000
O    -3.720000000    -0.130000000     5.322000000
H    -4.668000000    -0.239000000     5.250000000
H    -3.405000000    -0.977000000     5.636000000
O    -1.484000000    -4.509000000     0.467000000
H    -1.146000000    -5.109000000    -0.197000000
H    -2.033000000    -5.057000000     1.028000000
O     1.502000000     0.659000000     2.464000000
H     0.888000000     0.944000000     1.787000000
H     1.314000000    -0.272000000     2.583000000
O     2.620000000    -2.348000000    -4.374000000
H     2.699000000    -1.906000000    -3.528000000
H     1.740000000    -2.127000000    -4.678000000
O     6.627000000    -3.758000000    -0.830000000
H     5.953000000    -4.412000000    -0.644000000
H     6.141000000    -3.002000000    -1.161000000
O    -4.314000000    -4.038000000     3.805000000
H    -3.573000000    -3.836000000     4.377000000
H    -4.681000000    -3.184000000     3.578000000
O     7.510000000    -0.231000000    -3.279000000
H     8.373000000    -0.285000000    -3.690000000
H     7.125000000     0.570000000    -3.635000000
O     3.014000000    -3.689000000    -6.559000000
H     2.849000000    -3.175000000    -5.769000000
H     2.262000000    -3.509000000    -7.123000000
O     6.193000000    -2.218000000    -4.765000000
H     6.770000000    -1.503000000    -4.495000000
H     5.309000000    -1.870000000    -4.645000000
O     5.982000000     3.901000000     0.967000000
H     6.724000000     4.266000000     0.486000000
H     5.558000000     3.312000000     0.342000000
O    -1.113000000     1.350000000    -3.314000000
H    -0.687000000     1.220000000    -2.466000000
H    -1.903000000     0.812000000    -3.270000000
O    -0.496000000    -3.423000000    -2.596000000
H    -0.095000000    -2.917000000    -3.302000000
H    -1.238000000    -2.889000000    -2.311000000
O     1.942000000     2.059000000     4.994000000
H     2.218000000     1.783000000     4.120000000
H     2.742000000     2.028000000     5.519000000
O     5.539000000    -3.144000000     2.265000000
H     5.216000000    -2.248000000     2.358000000
H     4.924000000    -3.560000000     1.661000000
O     0.126000000    -1.932000000    -5.076000000
H    -0.739000000    -1.568000000    -4.886000000
H    -0.023000000    -2.534000000    -5.805000000
O     3.894000000    -5.784000000     1.220000000
H     3.688000000    -5.517000000     2.116000000
H     3.891000000    -4.968000000     0.720000000
O     1.187000000    -3.995000000     1.475000000
H     1.207000000    -4.912000000     1.748000000
H     0.336000000    -3.891000000     1.048000000
O    -1.297000000    -6.005000000    -1.936000000
H    -2.045000000    -6.103000000    -2.525000000
H    -0.800000000    -5.273000000    -2.300000000
O    -0.824000000     5.471000000    -0.073000000
H    -0.304000000     5.508000000    -0.876000000
H    -1.614000000     4.992000000    -0.322000000
O    -6.856000000     0.088000000     0.529000000
H    -6.675000000    -0.199000000    -0.366000000
H    -7.466000000    -0.566000000     0.871000000
O     5.423000000     0.467000000     0.611000000
H     5.673000000     1.250000000     0.121000000
H     5.536000000    -0.252000000    -0.011000000
O    -3.202000000     4.043000000     3.724000000
H    -2.569000000     3.476000000     4.163000000
H    -4.002000000     3.955000000     4.241000000
O     3.116000000     3.567000000     1.207000000
H     2.910000000     2.648000000     1.379000000
H     3.954000000     3.711000000     1.647000000
O     4.056000000     0.744000000    -7.064000000
H     3.125000000     0.866000000    -6.880000000
H     4.461000000     0.651000000    -6.202000000
O     6.894000000     2.331000000    -4.293000000
H     7.308000000     2.400000000    -5.154000000
H     7.551000000     2.667000000    -3.684000000
O     0.639000000     5.735000000    -2.101000000
H     0.575000000     5.740000000    -3.056000000
H     1.482000000     5.318000000    -1.919000000
O    -2.355000000     1.932000000     6.226000000
H    -2.665000000     1.098000000     5.873000000
H    -1.762000000     2.270000000     5.555000000
O    -5.665000000    -1.402000000     3.369000000
H    -6.617000000    -1.359000000     3.273000000
H    -5.327000000    -0.893000000     2.632000000
O    -2.902000000     3.681000000    -1.810000000
H    -2.590000000     2.798000000    -1.615000000
H    -3.495000000     3.891000000    -1.089000000
O     5.667000000    -1.270000000    -1.431000000
H     6.040000000    -0.675000000    -2.080000000
H     4.722000000    -1.223000000    -1.576000000
O    -3.594000000    -5.727000000     1.814000000
H    -3.611000000    -5.202000000     2.614000000
H    -4.399000000    -6.244000000     1.851000000
O     4.117000000    -1.050000000     2.622000000
H     4.155000000    -0.326000000     1.998000000
H     3.190000000    -1.125000000     2.847000000
O    -2.339000000    -2.469000000     5.315000000
H    -2.104000000    -2.610000000     6.232000000
H    -1.502000000    -2.461000000     4.851000000
O    -3.274000000     4.179000000     0.938000000
H    -3.102000000     3.980000000     1.859000000
H    -4.131000000     4.603000000     0.940000000
O    -1.970000000     6.459000000     3.463000000
H    -1.266000000     6.451000000     2.814000000
H    -2.297000000     5.559000000     3.473000000
O     0.091000000     4.111000000     2.202000000
H     0.993000000     4.399000000     2.061000000
H    -0.375000000     4.389000000     1.414000000
O     3.836000000    -4.390000000    -2.792000000
H     3.668000000    -4.006000000    -1.931000000
H     3.606000000    -3.698000000    -3.412000000
O     1.416000000    -1.939000000     3.127000000
H     1.438000000    -1.987000000     4.082000000
H     1.066000000    -2.787000000     2.852000000
O    -2.973000000    -2.343000000    -1.919000000
H    -3.495000000    -3.142000000    -1.989000000
H    -3.453000000    -1.698000000    -2.439000000
O    -0.885000000     2.334000000     4.111000000
H    -0.481000000     2.937000000     3.487000000
H    -0.179000000     1.735000000     4.356000000
O     2.843000000     2.517000000    -4.382000000
H     2.937000000     2.003000000    -3.580000000
H     3.054000000     3.413000000    -4.119000000
O     3.561000000    -3.464000000    -0.151000000
H     3.344000000    -2.602000000    -0.507000000
H     2.776000000    -3.730000000     0.328000000
O     3.026000000     5.102000000    -1.260000000
H     3.547000000     5.775000000    -0.822000000
H     2.886000000     4.434000000    -0.589000000
O     0.217000000     2.777000000    -5.222000000
H    -0.274000000     2.341000000    -4.526000000
H     1.132000000     2.710000000    -4.949000000
O    -5.008000000    -3.015000000     0.497000000
H    -4.695000000    -2.764000000     1.367000000
H    -4.240000000    -3.388000000     0.064000000
O     4.732000000     0.394000000    -4.396000000
H     5.194000000     1.226000000    -4.505000000
H     4.284000000     0.478000000    -3.554000000
