161
-3048.30286
C     0.119000000    -1.513000000    -0.163000000
H     0.065000000    -2.564000000    -0.435000000
C    -1.065000000    -0.808000000     0.095000000
H    -2.030000000    -1.308000000     0.110000000
C    -1.043000000     0.575000000     0.195000000
C    -2.308000000     1.360000000     0.648000000
H    -3.197000000     0.795000000     0.362000000
H    -2.314000000     1.524000000     1.728000000
H    -2.301000000     2.313000000     0.116000000
C     0.154000000     1.263000000     0.225000000
H     0.160000000     2.327000000     0.446000000
C     1.339000000     0.597000000    -0.128000000
H     2.246000000     1.151000000    -0.356000000
C     1.338000000    -0.817000000    -0.263000000
C     2.628000000    -1.462000000    -0.718000000
O     3.649000000    -0.825000000    -0.717000000
O     2.567000000    -2.611000000    -1.149000000
O    -5.873000000    -0.816000000    -0.462000000
H    -5.083000000    -1.165000000    -0.051000000
H    -5.549000000    -0.259000000    -1.170000000
O     5.270000000     1.338000000    -0.631000000
H     6.136000000     0.966000000    -0.466000000
H     4.704000000     0.577000000    -0.761000000
O    -2.831000000    -5.944000000     1.549000000
H    -3.148000000    -5.720000000     0.674000000
H    -3.564000000    -6.404000000     1.959000000
O     1.734000000     2.058000000     3.345000000
H     2.346000000     1.980000000     4.076000000
H     0.960000000     1.571000000     3.627000000
O     5.037000000    -4.836000000     1.368000000
H     5.458000000    -4.467000000     0.592000000
H     4.105000000    -4.659000000     1.241000000
O    -0.339000000    -0.704000000     2.814000000
H     0.017000000    -1.586000000     2.709000000
H    -0.204000000    -0.289000000     1.962000000
O    -3.974000000     4.833000000    -1.565000000
H    -4.795000000     5.255000000    -1.313000000
H    -3.359000000     5.070000000    -0.870000000
O     1.789000000    -1.624000000    -4.592000000
H     1.937000000    -2.508000000    -4.928000000
H     0.902000000    -1.650000000    -4.232000000
O    -1.756000000    -0.061000000    -3.283000000
H    -2.332000000     0.687000000    -3.440000000
H    -1.796000000    -0.200000000    -2.337000000
O     5.083000000     3.835000000     0.406000000
H     5.957000000     3.733000000     0.784000000
H     4.884000000     2.978000000     0.030000000
O    -4.173000000    -2.494000000     1.268000000
H    -3.630000000    -3.156000000     0.837000000
H    -4.542000000    -2.945000000     2.027000000
O    -3.429000000    -2.350000000    -1.769000000
H    -4.195000000    -1.882000000    -2.101000000
H    -3.790000000    -3.005000000    -1.170000000
O     1.756000000    -4.159000000    -3.044000000
H     2.175000000    -3.506000000    -2.484000000
H     0.818000000    -3.995000000    -2.944000000
O    -0.229000000    -5.003000000     1.363000000
H    -0.092000000    -4.143000000     1.760000000
H    -1.156000000    -5.190000000     1.511000000
O    -0.306000000    -6.107000000    -1.451000000
H    -0.594000000    -5.692000000    -0.638000000
H    -1.023000000    -5.953000000    -2.066000000
O     0.609000000     4.183000000    -1.955000000
H     1.009000000     5.010000000    -1.686000000
H    -0.252000000     4.431000000    -2.292000000
O    -7.656000000     1.950000000    -0.675000000
H    -7.168000000     1.159000000    -0.445000000
H    -7.070000000     2.669000000    -0.440000000
O    -3.840000000    -4.679000000    -0.551000000
H    -3.503000000    -4.737000000    -1.445000000
H    -4.652000000    -5.185000000    -0.567000000
O    -5.333000000     2.349000000     3.675000000
H    -4.575000000     2.389000000     4.259000000
H    -5.915000000     3.040000000     3.991000000
O     0.598000000    -3.272000000     3.351000000
H     1.307000000    -2.740000000     3.713000000
H     0.450000000    -3.952000000     4.009000000
O    -7.430000000    -2.200000000     1.306000000
H    -7.228000000    -2.121000000     2.239000000
H    -6.745000000    -1.694000000     0.869000000
O     7.724000000     0.495000000    -0.365000000
H     8.047000000     0.012000000    -1.125000000
H     7.542000000    -0.180000000     0.288000000
O     4.167000000    -0.296000000     2.053000000
H     3.813000000     0.558000000     2.304000000
H     3.956000000    -0.379000000     1.123000000
O    -5.067000000    -1.685000000     4.795000000
H    -4.169000000    -1.355000000     4.821000000
H    -5.487000000    -1.299000000     5.564000000
O    -2.492000000     2.540000000     5.115000000
H    -2.474000000     1.659000000     4.742000000
H    -1.832000000     2.520000000     5.808000000
O     2.574000000     4.431000000     1.634000000
H     3.375000000     4.187000000     1.170000000
H     2.436000000     3.721000000     2.261000000
O     3.889000000    -5.025000000    -4.707000000
H     3.470000000    -4.782000000    -3.881000000
H     4.324000000    -5.857000000    -4.518000000
O     6.796000000    -0.626000000    -4.224000000
H     6.018000000    -1.086000000    -3.908000000
H     6.613000000    -0.454000000    -5.148000000
O    -6.006000000    -0.096000000     2.531000000
H    -5.451000000    -0.692000000     3.034000000
H    -5.624000000     0.769000000     2.679000000
O     3.107000000    -6.865000000     2.317000000
H     3.210000000    -6.180000000     1.656000000
H     3.866000000    -6.760000000     2.891000000
O    -1.757000000     4.547000000    -3.309000000
H    -1.954000000     5.446000000    -3.045000000
H    -2.517000000     4.041000000    -3.021000000
O     5.704000000    -3.152000000    -0.903000000
H     6.261000000    -3.326000000    -1.662000000
H     4.932000000    -2.718000000    -1.266000000
O    -4.877000000     0.116000000    -2.697000000
H    -4.598000000     1.022000000    -2.824000000
H    -5.231000000    -0.148000000    -3.547000000
O     6.778000000    -1.718000000     1.271000000
H     5.863000000    -1.754000000     1.551000000
H     6.849000000    -2.392000000     0.596000000
O    -2.461000000     6.195000000     0.633000000
H    -2.867000000     5.759000000     1.383000000
H    -1.520000000     6.098000000     0.780000000
O    -2.883000000     5.063000000     3.301000000
H    -2.174000000     5.145000000     3.939000000
H    -3.101000000     4.131000000     3.303000000
O     0.155000000     5.678000000     1.903000000
H     0.900000000     5.149000000     1.620000000
H    -0.002000000     5.406000000     2.808000000
O     3.454000000     4.528000000    -2.329000000
H     3.523000000     4.372000000    -1.387000000
H     2.836000000     3.866000000    -2.637000000
O     2.988000000    -2.147000000     3.973000000
H     3.319000000    -1.432000000     3.430000000
H     3.657000000    -2.828000000     3.907000000
O    -0.820000000    -3.437000000    -2.898000000
H    -1.338000000    -2.685000000    -2.612000000
H    -1.420000000    -4.180000000    -2.833000000
O    -4.498000000     2.663000000    -3.140000000
H    -4.781000000     3.112000000    -3.937000000
H    -4.293000000     3.370000000    -2.527000000
O     0.179000000     0.475000000     5.302000000
H    -0.205000000     0.069000000     4.525000000
H    -0.103000000    -0.083000000     6.027000000
O     2.711000000     1.524000000    -3.305000000
H     3.583000000     1.889000000    -3.460000000
H     2.745000000     1.197000000    -2.406000000
O     2.313000000    -6.742000000    -1.538000000
H     2.518000000    -5.808000000    -1.584000000
H     1.395000000    -6.798000000    -1.804000000
O     2.399000000    -4.593000000     0.662000000
H     2.438000000    -3.933000000    -0.031000000
H     1.477000000    -4.615000000     0.919000000
O     1.182000000     2.934000000    -5.115000000
H     0.396000000     3.054000000    -4.583000000
H     1.729000000     2.339000000    -4.602000000
O    -3.133000000     0.075000000     3.888000000
H    -3.268000000     0.709000000     3.183000000
H    -2.495000000    -0.544000000     3.534000000
O     4.398000000    -1.813000000    -3.279000000
H     4.369000000    -1.444000000    -2.396000000
H     3.482000000    -1.837000000    -3.558000000
