161
-3042.36712
C     0.451000000    -1.346000000     0.405000000
H     0.562000000    -2.401000000     0.640000000
C    -0.035000000    -1.033000000    -0.860000000
H    -0.093000000    -1.808000000    -1.620000000
C    -0.414000000     0.308000000    -1.099000000
C    -0.708000000     0.766000000    -2.539000000
H    -1.051000000    -0.083000000    -3.133000000
H    -1.467000000     1.551000000    -2.531000000
H     0.225000000     1.180000000    -2.928000000
C    -0.390000000     1.248000000    -0.108000000
H    -0.704000000     2.232000000    -0.445000000
C     0.012000000     0.900000000     1.206000000
H     0.247000000     1.662000000     1.944000000
C     0.447000000    -0.406000000     1.457000000
C     0.858000000    -0.848000000     2.854000000
O     0.639000000    -0.028000000     3.741000000
O     1.420000000    -1.892000000     3.017000000
O    -2.035000000     0.432000000     3.454000000
H    -1.089000000     0.284000000     3.473000000
H    -2.172000000     1.178000000     4.039000000
O     3.681000000     3.804000000    -5.425000000
H     2.750000000     3.852000000    -5.208000000
H     4.099000000     4.423000000    -4.826000000
O     3.929000000    -0.885000000     2.792000000
H     4.086000000    -1.287000000     1.937000000
H     3.008000000    -1.071000000     2.978000000
O    -3.518000000    -5.326000000    -2.978000000
H    -4.446000000    -5.184000000    -2.794000000
H    -3.061000000    -4.754000000    -2.361000000
O    -0.516000000    -4.405000000    -3.748000000
H    -0.529000000    -3.683000000    -4.376000000
H    -1.044000000    -5.090000000    -4.159000000
O    -3.436000000     4.565000000    -2.107000000
H    -3.683000000     3.832000000    -2.672000000
H    -2.491000000     4.653000000    -2.229000000
O    -4.559000000     3.252000000     3.613000000
H    -3.964000000     3.173000000     2.868000000
H    -3.985000000     3.269000000     4.379000000
O     0.097000000    -2.389000000    -5.532000000
H     0.835000000    -1.831000000    -5.284000000
H    -0.083000000    -2.157000000    -6.443000000
O    -0.370000000     1.942000000    -7.000000000
H    -1.316000000     2.082000000    -7.049000000
H    -0.093000000     1.853000000    -7.912000000
O    -0.452000000    -6.681000000     1.453000000
H    -0.460000000    -6.237000000     0.606000000
H    -1.053000000    -7.418000000     1.344000000
O    -2.608000000    -3.824000000     1.006000000
H    -2.673000000    -4.540000000     1.638000000
H    -2.789000000    -3.035000000     1.518000000
O     3.299000000     2.891000000    -1.065000000
H     4.106000000     2.976000000    -1.573000000
H     3.075000000     1.962000000    -1.125000000
O     3.216000000    -4.119000000     7.365000000
H     4.036000000    -4.028000000     6.880000000
H     2.624000000    -3.488000000     6.955000000
O     2.277000000    -1.126000000    -4.542000000
H     2.989000000    -1.572000000    -4.084000000
H     2.287000000    -0.236000000    -4.190000000
O    -0.030000000    -0.518000000     6.188000000
H    -0.985000000    -0.459000000     6.193000000
H     0.214000000    -0.386000000     5.272000000
O     3.396000000    -0.719000000     7.304000000
H     2.891000000    -1.461000000     6.971000000
H     3.186000000    -0.001000000     6.707000000
O     1.593000000    -6.813000000     3.419000000
H     2.141000000    -6.032000000     3.337000000
H     0.983000000    -6.756000000     2.683000000
O     1.750000000    -2.535000000     5.858000000
H     1.701000000    -2.553000000     4.902000000
H     1.171000000    -1.817000000     6.113000000
O     5.072000000    -5.306000000     3.356000000
H     5.677000000    -4.724000000     2.895000000
H     4.220000000    -5.131000000     2.957000000
O     4.182000000    -2.363000000     0.686000000
H     3.721000000    -3.111000000     0.307000000
H     5.027000000    -2.717000000     0.964000000
O    -2.567000000    -0.790000000     6.809000000
H    -2.264000000    -1.698000000     6.787000000
H    -3.345000000    -0.784000000     6.251000000
O    -2.416000000     2.470000000     5.524000000
H    -2.793000000     2.106000000     6.325000000
H    -1.537000000     2.751000000     5.778000000
O    -1.179000000     5.195000000     1.657000000
H    -0.466000000     4.776000000     2.138000000
H    -0.786000000     5.985000000     1.285000000
O     2.338000000    -4.522000000    -0.099000000
H     2.919000000    -5.190000000    -0.462000000
H     1.458000000    -4.816000000    -0.335000000
O    -4.659000000     2.346000000    -3.035000000
H    -5.429000000     2.472000000    -3.590000000
H    -4.563000000     1.396000000    -2.970000000
O     5.951000000     0.499000000     1.366000000
H     5.300000000     0.057000000     1.911000000
H     6.587000000     0.849000000     1.990000000
O     1.105000000    -5.638000000     6.026000000
H     0.958000000    -6.096000000     5.198000000
H     1.468000000    -4.790000000     5.769000000
O    -0.348000000    -4.591000000    -0.640000000
H    -0.315000000    -4.248000000    -1.533000000
H    -1.188000000    -4.287000000    -0.298000000
O    -5.705000000     3.376000000    -0.224000000
H    -5.012000000     2.921000000     0.254000000
H    -5.254000000     3.795000000    -0.957000000
O    -1.182000000     6.098000000    -4.688000000
H    -0.758000000     5.362000000    -4.248000000
H    -1.633000000     6.569000000    -3.987000000
O    -2.930000000    -1.996000000     2.921000000
H    -2.695000000    -1.075000000     3.038000000
H    -3.834000000    -2.054000000     3.229000000
O    -4.888000000    -3.342000000    -0.501000000
H    -4.003000000    -3.416000000    -0.145000000
H    -5.254000000    -2.567000000    -0.075000000
O    -1.965000000    -4.090000000     4.386000000
H    -1.789000000    -3.883000000     5.304000000
H    -2.161000000    -3.243000000     3.984000000
O     3.410000000     1.142000000    -3.481000000
H     3.397000000     0.607000000    -2.687000000
H     4.075000000     1.809000000    -3.309000000
O    -0.655000000     4.331000000    -2.101000000
H    -0.156000000     3.545000000    -1.877000000
H    -0.129000000     5.054000000    -1.759000000
O     1.128000000     3.402000000    -5.069000000
H     0.571000000     3.043000000    -5.759000000
H     0.729000000     3.095000000    -4.255000000
O     3.242000000     1.017000000     4.993000000
H     3.863000000     0.373000000     4.654000000
H     2.499000000     0.974000000     4.391000000
O     3.449000000     0.859000000    -6.530000000
H     3.377000000     1.728000000    -6.135000000
H     3.512000000     0.262000000    -5.784000000
O     2.805000000     2.860000000     1.888000000
H     3.687000000     3.202000000     2.039000000
H     2.723000000     2.822000000     0.935000000
O     2.257000000    -4.575000000    -4.493000000
H     2.433000000    -3.643000000    -4.625000000
H     1.497000000    -4.595000000    -3.910000000
O    -2.945000000     2.939000000     1.662000000
H    -2.385000000     3.711000000     1.749000000
H    -2.560000000     2.443000000     0.941000000
O     2.571000000     5.442000000    -0.353000000
H     3.150000000     5.778000000     0.331000000
H     2.926000000     4.578000000    -0.563000000
O     1.160000000     4.242000000     3.374000000
H     1.800000000     3.780000000     2.833000000
H     1.008000000     3.657000000     4.116000000
O    -4.603000000    -0.355000000    -3.474000000
H    -4.022000000    -0.797000000    -4.093000000
H    -5.104000000    -1.063000000    -3.068000000
O     3.135000000     0.008000000    -0.940000000
H     3.591000000    -0.784000000    -0.656000000
H     2.208000000    -0.186000000    -0.797000000
O     2.743000000    -4.017000000     2.583000000
H     2.288000000    -3.288000000     3.005000000
H     2.395000000    -4.033000000     1.692000000
O    -2.805000000    -0.941000000    -5.879000000
H    -1.881000000    -1.105000000    -6.069000000
H    -3.016000000    -0.154000000    -6.381000000
O     0.425000000     2.525000000     5.356000000
H     0.819000000     2.487000000     6.227000000
H     0.787000000     1.768000000     4.895000000
