161
-3083.44627
C     0.459000000    -1.357000000     0.248000000
H     0.792000000    -2.391000000     0.229000000
C     0.275000000    -0.764000000    -1.006000000
H     0.547000000    -1.299000000    -1.912000000
C    -0.220000000     0.512000000    -1.095000000
C    -0.315000000     1.107000000    -2.486000000
H    -0.503000000     2.182000000    -2.444000000
H     0.551000000     0.777000000    -3.065000000
H    -1.213000000     0.654000000    -2.911000000
C    -0.596000000     1.236000000     0.102000000
H    -0.899000000     2.280000000     0.097000000
C    -0.484000000     0.584000000     1.302000000
H    -0.742000000     1.215000000     2.148000000
C     0.243000000    -0.615000000     1.421000000
C     0.647000000    -1.232000000     2.762000000
O     0.462000000    -0.540000000     3.766000000
O     0.999000000    -2.347000000     2.852000000
O    -0.241000000     1.680000000     5.232000000
H     0.225000000     0.957000000     4.813000000
H    -0.898000000     1.255000000     5.783000000
O     2.156000000     2.205000000     1.170000000
H     1.759000000     2.696000000     1.889000000
H     1.423000000     1.748000000     0.758000000
O     4.269000000    -0.090000000     2.800000000
H     3.937000000     0.604000000     2.231000000
H     4.153000000    -0.893000000     2.292000000
O     0.771000000     5.071000000    -1.200000000
H     0.632000000     5.286000000    -0.278000000
H    -0.108000000     4.913000000    -1.545000000
O    -1.871000000    -5.962000000    -3.221000000
H    -1.615000000    -5.057000000    -3.045000000
H    -1.043000000    -6.428000000    -3.335000000
O    -4.965000000    -1.214000000     1.209000000
H    -5.159000000    -1.967000000     1.768000000
H    -4.143000000    -1.444000000     0.775000000
O    -0.812000000     5.663000000     0.917000000
H    -0.848000000     5.171000000     1.737000000
H    -1.724000000     5.887000000     0.732000000
O    -3.583000000    -2.208000000    -3.519000000
H    -4.173000000    -2.831000000    -3.943000000
H    -2.721000000    -2.623000000    -3.569000000
O    -1.145000000    -1.494000000    -7.635000000
H    -1.167000000    -1.178000000    -6.731000000
H    -1.620000000    -2.324000000    -7.611000000
O    -3.712000000     3.044000000    -1.847000000
H    -3.387000000     2.241000000    -1.439000000
H    -4.579000000     2.811000000    -2.178000000
O    -0.910000000    -3.219000000    -3.457000000
H    -0.339000000    -2.805000000    -4.105000000
H    -0.471000000    -3.068000000    -2.620000000
O     3.561000000     0.444000000    -0.518000000
H     3.058000000     1.021000000     0.057000000
H     4.475000000     0.658000000    -0.332000000
O    -0.033000000    -2.925000000     5.539000000
H     0.428000000    -2.260000000     5.028000000
H    -0.833000000    -3.096000000     5.041000000
O     1.779000000    -4.992000000     5.306000000
H     1.189000000    -4.243000000     5.391000000
H     2.656000000    -4.610000000     5.334000000
O    -0.110000000    -4.340000000    -0.897000000
H    -0.680000000    -5.095000000    -1.042000000
H     0.605000000    -4.679000000    -0.358000000
O     2.179000000     2.901000000     6.426000000
H     2.030000000     2.484000000     7.274000000
H     1.451000000     2.603000000     5.881000000
O    -2.799000000    -2.485000000    -0.091000000
H    -2.014000000    -3.010000000    -0.247000000
H    -3.525000000    -3.098000000    -0.211000000
O     3.952000000     1.449000000    -5.466000000
H     3.411000000     0.817000000    -4.993000000
H     3.687000000     1.355000000    -6.381000000
O    -3.614000000     5.704000000     0.518000000
H    -4.564000000     5.658000000     0.630000000
H    -3.490000000     5.828000000    -0.423000000
O     1.261000000     3.278000000    -4.461000000
H     1.173000000     2.343000000    -4.277000000
H     1.691000000     3.636000000    -3.685000000
O    -0.758000000    -2.009000000     8.213000000
H    -0.078000000    -1.849000000     8.867000000
H    -0.346000000    -2.594000000     7.577000000
O    -4.392000000     2.392000000    -5.112000000
H    -4.902000000     2.535000000    -4.315000000
H    -3.512000000     2.698000000    -4.892000000
O     4.175000000    -4.891000000     2.187000000
H     5.058000000    -4.702000000     2.505000000
H     3.989000000    -5.774000000     2.505000000
O     4.064000000    -3.421000000     5.161000000
H     4.510000000    -3.168000000     5.970000000
H     4.766000000    -3.729000000     4.587000000
O     4.866000000     1.184000000     5.020000000
H     4.372000000     0.647000000     4.400000000
H     4.294000000     1.256000000     5.784000000
O     0.482000000    -1.078000000    -5.189000000
H     0.864000000    -1.197000000    -6.059000000
H     1.227000000    -1.138000000    -4.591000000
O     2.596000000     3.251000000    -1.846000000
H     2.757000000     2.631000000    -1.134000000
H     1.985000000     3.887000000    -1.476000000
O     4.793000000     3.206000000    -3.491000000
H     4.107000000     3.271000000    -2.826000000
H     4.447000000     2.584000000    -4.132000000
O     1.292000000     4.480000000    -7.011000000
H     1.350000000     5.364000000    -6.648000000
H     1.177000000     3.915000000    -6.247000000
O    -2.306000000    -0.362000000     4.051000000
H    -2.183000000    -0.181000000     4.983000000
H    -1.430000000    -0.582000000     3.732000000
O    -1.859000000    -4.548000000     2.141000000
H    -0.923000000    -4.674000000     1.990000000
H    -1.972000000    -3.597000000     2.165000000
O     0.846000000    -4.883000000     2.201000000
H     1.185000000    -5.417000000     2.919000000
H     0.832000000    -3.992000000     2.550000000
O     3.751000000    -1.888000000    -1.231000000
H     3.418000000    -1.034000000    -0.955000000
H     3.654000000    -2.444000000    -0.458000000
O    -1.803000000     0.088000000     6.672000000
H    -2.685000000     0.102000000     7.042000000
H    -1.265000000    -0.324000000     7.348000000
O     2.121000000    -5.554000000    -0.277000000
H     2.041000000    -6.494000000    -0.435000000
H     1.914000000    -5.449000000     0.652000000
O    -3.393000000    -0.019000000    -1.476000000
H    -3.624000000    -0.727000000    -2.077000000
H    -2.980000000    -0.459000000    -0.734000000
O     1.981000000    -3.462000000    -2.660000000
H     1.456000000    -3.927000000    -2.009000000
H     2.730000000    -3.125000000    -2.168000000
O    -5.748000000     2.667000000     0.785000000
H    -4.875000000     2.315000000     0.960000000
H    -6.345000000     1.963000000     1.039000000
O     2.950000000    -1.020000000    -4.045000000
H     2.905000000    -1.378000000    -3.159000000
H     3.482000000    -1.650000000    -4.531000000
O     0.643000000     3.511000000     3.371000000
H     1.191000000     4.167000000     3.802000000
H     0.365000000     2.929000000     4.078000000
O    -2.006000000     5.337000000    -2.159000000
H    -2.429000000     4.497000000    -1.980000000
H    -1.535000000     5.198000000    -2.980000000
O    -0.617000000     5.705000000    -4.253000000
H    -0.603000000     4.833000000    -4.647000000
H     0.029000000     6.204000000    -4.752000000
O     2.622000000    -0.641000000     5.295000000
H     3.089000000    -1.339000000     4.835000000
H     1.764000000    -0.608000000     4.872000000
O    -1.672000000     2.481000000    -6.259000000
H    -1.362000000     2.425000000    -7.163000000
H    -1.860000000     1.574000000    -6.015000000
O    -3.744000000     1.505000000     2.212000000
H    -3.958000000     0.603000000     1.973000000
H    -2.912000000     1.438000000     2.681000000
O     3.196000000    -1.007000000     7.999000000
H     3.860000000    -1.625000000     7.694000000
H     2.829000000    -0.635000000     7.196000000
O     3.255000000    -2.422000000     1.428000000
H     3.668000000    -3.261000000     1.635000000
H     2.430000000    -2.436000000     1.913000000
O    -2.362000000    -0.170000000    -5.145000000
H    -1.509000000    -0.430000000    -4.798000000
H    -2.973000000    -0.814000000    -4.788000000
