161
-3011.46599
C    -0.416000000     0.691000000    -1.236000000
H    -0.557000000     1.288000000    -2.133000000
C     0.678000000     0.962000000    -0.408000000
H     1.378000000     1.766000000    -0.623000000
C     0.952000000     0.226000000     0.748000000
C     2.254000000     0.592000000     1.539000000
H     2.526000000    -0.224000000     2.212000000
H     3.049000000     0.794000000     0.819000000
H     2.204000000     1.569000000     2.025000000
C     0.039000000    -0.749000000     1.077000000
H     0.236000000    -1.302000000     1.992000000
C    -1.046000000    -1.049000000     0.258000000
H    -1.657000000    -1.903000000     0.539000000
C    -1.247000000    -0.422000000    -0.935000000
C    -2.458000000    -0.707000000    -1.823000000
O    -2.963000000    -1.791000000    -1.748000000
O    -2.969000000     0.257000000    -2.308000000
O    -2.659000000     0.815000000    -4.876000000
H    -1.733000000     1.045000000    -4.945000000
H    -2.770000000     0.537000000    -3.966000000
O     5.255000000    -0.632000000     0.056000000
H     5.083000000    -0.057000000     0.803000000
H     4.620000000    -0.359000000    -0.606000000
O     1.618000000    -1.928000000     4.521000000
H     0.868000000    -1.348000000     4.388000000
H     1.351000000    -2.503000000     5.239000000
O    -4.231000000    -1.994000000     1.200000000
H    -3.806000000    -1.901000000     0.347000000
H    -4.607000000    -2.874000000     1.185000000
O     3.258000000     3.948000000    -1.833000000
H     2.943000000     4.207000000    -0.967000000
H     2.576000000     4.244000000    -2.435000000
O     3.212000000     4.322000000     0.807000000
H     3.311000000     4.010000000     1.706000000
H     3.258000000     5.275000000     0.877000000
O    -5.621000000    -1.398000000    -1.956000000
H    -4.693000000    -1.613000000    -1.870000000
H    -5.821000000    -1.559000000    -2.878000000
O    -5.321000000    -4.136000000    -3.996000000
H    -5.276000000    -4.994000000    -4.418000000
H    -4.800000000    -3.564000000    -4.559000000
O    -4.768000000     1.640000000    -0.404000000
H    -4.461000000     1.031000000    -1.076000000
H    -4.125000000     1.563000000     0.301000000
O    -3.096000000    -5.712000000     2.159000000
H    -3.891000000    -5.496000000     1.671000000
H    -2.392000000    -5.635000000     1.515000000
O     5.906000000     0.727000000     5.841000000
H     6.786000000     0.929000000     5.521000000
H     5.523000000     0.177000000     5.157000000
O    -5.436000000    -4.680000000     1.213000000
H    -5.570000000    -4.821000000     0.276000000
H    -6.284000000    -4.883000000     1.609000000
O     0.820000000    -4.328000000    -3.010000000
H     0.410000000    -4.102000000    -3.845000000
H     1.071000000    -5.247000000    -3.107000000
O     5.619000000     1.556000000     2.102000000
H     4.968000000     2.137000000     2.495000000
H     5.600000000     1.772000000     1.169000000
O    -3.003000000    -2.582000000    -4.987000000
H    -2.441000000    -2.001000000    -5.501000000
H    -2.780000000    -2.387000000    -4.077000000
O    -5.531000000     0.728000000    -5.476000000
H    -5.527000000     1.233000000    -4.663000000
H    -4.623000000     0.449000000    -5.590000000
O    -0.236000000     1.675000000    -5.492000000
H     0.217000000     1.630000000    -6.334000000
H    -0.710000000     2.506000000    -5.521000000
O     4.132000000    -1.933000000     6.182000000
H     4.489000000    -1.779000000     5.307000000
H     4.872000000    -2.275000000     6.685000000
O    -3.900000000     4.755000000    -2.024000000
H    -4.201000000     4.137000000    -2.690000000
H    -3.973000000     5.613000000    -2.442000000
O     4.175000000     1.910000000    -3.725000000
H     3.772000000     2.669000000    -3.303000000
H     3.866000000     1.161000000    -3.216000000
O     3.076000000    -2.838000000    -2.254000000
H     3.489000000    -3.101000000    -1.431000000
H     2.322000000    -3.422000000    -2.340000000
O     3.252000000    -0.138000000    -2.060000000
H     2.407000000     0.016000000    -1.638000000
H     3.302000000    -1.088000000    -2.158000000
O    -1.290000000     5.203000000    -0.962000000
H    -2.001000000     4.922000000    -1.538000000
H    -0.962000000     6.008000000    -1.362000000
O     4.101000000     3.374000000     3.447000000
H     5.023000000     3.607000000     3.339000000
H     3.985000000     3.292000000     4.394000000
O    -7.008000000     2.931000000     0.533000000
H    -6.308000000     2.429000000     0.114000000
H    -6.709000000     3.052000000     1.434000000
O     6.505000000    -3.194000000     0.906000000
H     6.245000000    -2.319000000     0.620000000
H     6.980000000    -3.048000000     1.724000000
O    -0.481000000     0.183000000     4.488000000
H    -0.738000000     0.566000000     5.327000000
H    -1.307000000     0.052000000     4.022000000
O     1.025000000     4.926000000    -3.275000000
H     0.275000000     4.755000000    -3.844000000
H     0.807000000     5.746000000    -2.832000000
O    -3.687000000     2.281000000    -7.281000000
H    -3.232000000     1.674000000    -6.697000000
H    -4.332000000     2.714000000    -6.722000000
O     2.170000000    -4.360000000     0.641000000
H     1.317000000    -4.747000000     0.444000000
H     2.800000000    -4.935000000     0.207000000
O    -3.665000000    -2.786000000     4.481000000
H    -4.613000000    -2.685000000     4.396000000
H    -3.301000000    -2.026000000     4.025000000
O    -6.182000000    -0.635000000     2.757000000
H    -5.495000000    -1.028000000     2.220000000
H    -6.123000000     0.303000000     2.573000000
O     2.502000000     0.232000000    -5.141000000
H     3.097000000     0.960000000    -4.962000000
H     1.648000000     0.539000000    -4.835000000
O    -6.492000000    -5.064000000    -1.691000000
H    -7.093000000    -4.404000000    -1.345000000
H    -6.145000000    -4.675000000    -2.494000000
O     2.381000000    -4.597000000     3.252000000
H     2.419000000    -4.508000000     2.300000000
H     2.208000000    -3.710000000     3.569000000
O    -1.217000000     4.406000000    -5.574000000
H    -0.513000000     4.999000000    -5.836000000
H    -2.007000000     4.947000000    -5.594000000
O     1.897000000     1.743000000     5.045000000
H     0.970000000     1.550000000     4.903000000
H     2.286000000     1.704000000     4.171000000
O    -0.781000000    -1.358000000    -6.121000000
H    -0.615000000    -1.016000000    -6.999000000
H    -0.339000000    -0.742000000    -5.537000000
O     5.520000000    -1.844000000     3.777000000
H     6.028000000    -1.258000000     3.215000000
H     5.050000000    -2.412000000     3.167000000
O    -4.092000000     2.646000000    -3.417000000
H    -3.741000000     2.137000000    -4.148000000
H    -3.984000000     2.078000000    -2.655000000
O     7.364000000    -0.564000000     2.301000000
H     6.758000000     0.156000000     2.131000000
H     8.228000000    -0.151000000     2.320000000
O     5.201000000     2.385000000    -0.275000000
H     4.462000000     2.969000000    -0.446000000
H     5.951000000     2.824000000    -0.675000000
O    -1.359000000    -6.622000000    -1.377000000
H    -1.938000000    -5.907000000    -1.641000000
H    -0.484000000    -6.329000000    -1.633000000
O    -8.030000000    -0.795000000    -1.120000000
H    -8.172000000    -0.485000000    -0.225000000
H    -7.098000000    -0.643000000    -1.281000000
O    -2.918000000     0.075000000     3.377000000
H    -2.658000000    -0.053000000     2.465000000
H    -3.561000000     0.783000000     3.346000000
O     0.446000000     5.280000000     1.973000000
H     0.906000000     4.471000000     1.745000000
H     0.453000000     5.795000000     1.166000000
O     6.875000000     0.643000000    -2.346000000
H     6.210000000     0.620000000    -3.034000000
H     6.471000000     0.191000000    -1.606000000
O    -3.148000000    -4.410000000    -2.023000000
H    -3.804000000    -4.283000000    -2.708000000
H    -2.883000000    -3.524000000    -1.776000000
