161
-3023.99572
C     0.319000000    -0.081000000     1.453000000
H     0.641000000    -0.385000000     2.446000000
C     1.242000000     0.155000000     0.415000000
H     2.312000000     0.197000000     0.603000000
C     0.823000000     0.252000000    -0.873000000
C     1.842000000     0.184000000    -2.035000000
H     2.192000000     1.149000000    -2.407000000
H     2.696000000    -0.354000000    -1.618000000
H     1.510000000    -0.427000000    -2.876000000
C    -0.521000000     0.169000000    -1.126000000
H    -0.819000000     0.129000000    -2.171000000
C    -1.456000000     0.106000000    -0.150000000
H    -2.508000000    -0.069000000    -0.361000000
C    -1.034000000    -0.064000000     1.155000000
C    -2.109000000    -0.267000000     2.250000000
O    -3.292000000    -0.169000000     1.905000000
O    -1.841000000    -0.519000000     3.398000000
O    -0.103000000     3.273000000     4.144000000
H     0.714000000     2.778000000     4.078000000
H     0.174000000     4.187000000     4.193000000
O     1.000000000    -4.860000000    -0.336000000
H     1.257000000    -5.274000000     0.488000000
H     0.172000000    -4.423000000    -0.136000000
O     0.343000000     4.116000000    -1.772000000
H    -0.266000000     3.825000000    -1.094000000
H     0.137000000     3.569000000    -2.530000000
O     6.716000000    -2.482000000     2.023000000
H     6.210000000    -1.679000000     2.147000000
H     6.578000000    -2.979000000     2.829000000
O     4.331000000    -4.127000000     0.171000000
H     4.051000000    -4.891000000     0.674000000
H     4.037000000    -4.308000000    -0.722000000
O     5.471000000    -2.081000000    -5.719000000
H     5.860000000    -1.600000000    -4.989000000
H     4.527000000    -1.979000000    -5.598000000
O    -3.304000000     4.746000000    -1.987000000
H    -4.019000000     4.285000000    -2.427000000
H    -3.170000000     4.258000000    -1.174000000
O     0.347000000    -2.466000000    -6.738000000
H    -0.222000000    -2.131000000    -6.045000000
H     0.507000000    -3.378000000    -6.497000000
O    -6.018000000    -2.654000000     4.474000000
H    -6.913000000    -2.937000000     4.287000000
H    -5.466000000    -3.325000000     4.072000000
O     5.112000000    -0.198000000     2.209000000
H     4.299000000    -0.702000000     2.167000000
H     4.863000000     0.680000000     1.922000000
O     4.911000000     4.216000000    -1.654000000
H     4.037000000     3.896000000    -1.427000000
H     4.749000000     4.976000000    -2.213000000
O    -5.575000000    -1.587000000    -2.316000000
H    -5.710000000    -1.344000000    -1.400000000
H    -4.700000000    -1.260000000    -2.524000000
O     1.086000000     6.442000000    -2.836000000
H     0.764000000     6.221000000    -3.710000000
H     1.025000000     5.624000000    -2.344000000
O     6.084000000    -2.982000000    -1.795000000
H     5.411000000    -2.615000000    -2.368000000
H     5.608000000    -3.259000000    -1.012000000
O    -2.819000000    -2.108000000    -2.421000000
H    -2.136000000    -2.102000000    -1.750000000
H    -3.223000000    -2.972000000    -2.344000000
O    -5.747000000     2.981000000     4.048000000
H    -5.879000000     2.034000000     4.097000000
H    -5.387000000     3.128000000     3.173000000
O    -5.115000000     0.083000000     3.855000000
H    -4.469000000     0.004000000     3.153000000
H    -5.646000000    -0.710000000     3.783000000
O     2.792000000     3.146000000    -0.549000000
H     2.312000000     2.360000000    -0.289000000
H     2.113000000     3.808000000    -0.683000000
O    -3.068000000    -2.168000000     5.191000000
H    -3.990000000    -2.102000000     4.940000000
H    -2.603000000    -1.651000000     4.533000000
O    -4.526000000     0.784000000     6.517000000
H    -4.729000000     0.524000000     5.618000000
H    -3.599000000     1.024000000     6.493000000
O    -2.979000000     1.385000000    -4.837000000
H    -3.855000000     1.214000000    -4.490000000
H    -3.134000000     1.856000000    -5.656000000
O    -3.370000000    -4.024000000     1.274000000
H    -3.821000000    -4.811000000     0.968000000
H    -3.973000000    -3.632000000     1.906000000
O    -7.325000000    -2.147000000     1.702000000
H    -7.819000000    -2.145000000     2.522000000
H    -7.626000000    -2.932000000     1.244000000
O    -0.727000000    -3.451000000     6.666000000
H    -1.613000000    -3.443000000     6.303000000
H    -0.217000000    -2.909000000     6.065000000
O     4.638000000     2.371000000     1.580000000
H     4.479000000     2.735000000     0.710000000
H     4.311000000     3.038000000     2.183000000
O    -1.227000000     3.092000000     0.114000000
H    -2.004000000     3.178000000     0.666000000
H    -1.198000000     2.163000000    -0.116000000
O     2.443000000    -0.374000000     4.169000000
H     3.220000000    -0.731000000     4.600000000
H     2.462000000     0.560000000     4.378000000
O     2.955000000    -1.237000000    -5.407000000
H     2.043000000    -1.263000000    -5.696000000
H     3.077000000    -0.346000000    -5.079000000
O     0.113000000    -1.877000000     4.571000000
H     0.865000000    -1.339000000     4.322000000
H    -0.641000000    -1.297000000     4.467000000
O    -1.216000000    -3.255000000    -0.186000000
H    -1.947000000    -3.684000000     0.260000000
H    -0.928000000    -2.577000000     0.425000000
O     3.434000000    -2.906000000    -3.114000000
H     2.578000000    -3.282000000    -2.909000000
H     3.235000000    -2.119000000    -3.622000000
O    -3.302000000     3.860000000     6.020000000
H    -3.133000000     2.932000000     5.857000000
H    -3.908000000     4.118000000     5.325000000
O    -4.142000000     4.634000000     0.791000000
H    -3.659000000     5.128000000     1.454000000
H    -4.435000000     3.845000000     1.247000000
O    -1.982000000     1.486000000     5.380000000
H    -1.733000000     2.295000000     4.932000000
H    -1.819000000     0.796000000     4.737000000
O    -4.017000000    -4.245000000     6.495000000
H    -4.482000000    -3.791000000     7.197000000
H    -3.710000000    -3.546000000     5.918000000
O     0.795000000     2.164000000    -5.508000000
H     0.893000000     1.992000000    -6.445000000
H     1.596000000     1.815000000    -5.116000000
O     3.216000000    -1.967000000     1.127000000
H     3.704000000    -2.683000000     0.721000000
H     2.345000000    -2.331000000     1.287000000
O     4.041000000    -4.030000000     3.653000000
H     4.274000000    -4.140000000     2.731000000
H     3.175000000    -3.624000000     3.634000000
O    -5.123000000     1.748000000    -1.188000000
H    -4.905000000     1.642000000    -2.114000000
H    -5.587000000     0.943000000    -0.957000000
O     3.662000000     1.591000000    -5.385000000
H     3.795000000     1.393000000    -6.312000000
H     4.353000000     2.218000000    -5.173000000
O     2.497000000     2.314000000     4.443000000
H     2.237000000     2.854000000     5.189000000
H     2.894000000     2.930000000     3.828000000
O    -4.494000000     2.224000000     1.643000000
H    -4.003000000     1.402000000     1.663000000
H    -5.227000000     2.050000000     1.053000000
O     0.830000000    -4.437000000    -2.908000000
H     0.730000000    -4.156000000    -1.998000000
H     0.412000000    -5.297000000    -2.940000000
O    -5.354000000    -0.736000000     0.385000000
H    -5.967000000    -1.357000000     0.777000000
H    -4.711000000    -0.566000000     1.073000000
O    -0.938000000     2.717000000    -3.652000000
H    -1.738000000     2.222000000    -3.829000000
H    -0.361000000     2.510000000    -4.387000000
O     1.303000000    -3.228000000     2.130000000
H     1.046000000    -2.590000000     2.797000000
H     0.871000000    -4.039000000     2.397000000
O    -1.661000000    -1.238000000    -5.074000000
H    -1.740000000    -0.285000000    -5.126000000
H    -2.082000000    -1.468000000    -4.245000000
O     2.799000000     4.824000000    -5.118000000
H     2.714000000     3.917000000    -4.824000000
H     1.911000000     5.178000000    -5.062000000
