161
-3031.01065
C    -1.017000000     1.007000000    -0.543000000
H    -1.596000000     1.811000000    -0.991000000
C     0.284000000     1.307000000    -0.104000000
H     0.715000000     2.304000000    -0.135000000
C     1.118000000     0.334000000     0.338000000
C     2.493000000     0.606000000     0.844000000
H     3.148000000     0.244000000     0.048000000
H     2.844000000     1.637000000     0.928000000
H     2.723000000     0.077000000     1.771000000
C     0.673000000    -1.008000000     0.361000000
H     1.283000000    -1.855000000     0.664000000
C    -0.610000000    -1.308000000    -0.004000000
H    -0.904000000    -2.350000000     0.085000000
C    -1.471000000    -0.335000000    -0.480000000
C    -2.837000000    -0.732000000    -0.884000000
O    -3.227000000    -1.837000000    -0.640000000
O    -3.618000000     0.101000000    -1.252000000
O    -4.745000000    -1.060000000    -3.610000000
H    -3.991000000    -0.722000000    -4.093000000
H    -4.672000000    -0.660000000    -2.743000000
O    -0.038000000    -3.333000000    -3.632000000
H     0.295000000    -2.501000000    -3.296000000
H     0.288000000    -3.989000000    -3.016000000
O     5.201000000     4.080000000    -2.303000000
H     5.033000000     3.830000000    -1.395000000
H     4.685000000     3.462000000    -2.821000000
O     6.175000000    -0.594000000    -0.522000000
H     6.282000000     0.333000000    -0.308000000
H     6.033000000    -0.606000000    -1.469000000
O    -1.263000000     6.124000000    -0.778000000
H    -0.441000000     6.417000000    -0.386000000
H    -1.515000000     5.358000000    -0.262000000
O     1.464000000    -2.784000000     3.556000000
H     1.486000000    -1.856000000     3.322000000
H     2.383000000    -3.049000000     3.572000000
O    -4.414000000    -2.625000000     1.758000000
H    -3.978000000    -2.304000000     0.968000000
H    -4.587000000    -3.549000000     1.578000000
O     4.349000000     3.901000000     0.333000000
H     4.536000000     4.760000000     0.713000000
H     3.526000000     4.024000000    -0.141000000
O     2.255000000     4.697000000     2.939000000
H     3.117000000     4.311000000     3.094000000
H     2.442000000     5.591000000     2.651000000
O    -5.209000000    -3.460000000    -1.843000000
H    -4.452000000    -2.941000000    -1.573000000
H    -4.929000000    -3.887000000    -2.653000000
O    -5.845000000     0.682000000    -0.320000000
H    -6.302000000     0.884000000    -1.136000000
H    -5.021000000     0.282000000    -0.599000000
O    -1.209000000    -2.942000000     4.168000000
H    -1.509000000    -2.281000000     3.544000000
H    -0.257000000    -2.844000000     4.182000000
O    -4.088000000    -5.302000000     1.068000000
H    -4.185000000    -5.542000000     0.147000000
H    -3.142000000    -5.299000000     1.216000000
O    -4.162000000     5.537000000    -0.636000000
H    -3.885000000     5.899000000    -1.477000000
H    -4.222000000     4.594000000    -0.789000000
O     5.633000000    -0.025000000     2.336000000
H     5.564000000    -0.618000000     1.587000000
H     5.997000000     0.781000000     1.970000000
O    -7.546000000    -1.490000000    -4.070000000
H    -7.850000000    -1.595000000    -3.169000000
H    -6.591000000    -1.471000000    -4.001000000
O    -4.833000000     3.038000000    -0.717000000
H    -4.684000000     3.049000000    -1.662000000
H    -5.257000000     2.196000000    -0.551000000
O     3.124000000    -2.444000000    -4.462000000
H     3.325000000    -1.878000000    -5.208000000
H     2.724000000    -1.858000000    -3.819000000
O     3.080000000    -3.426000000    -0.970000000
H     3.896000000    -3.072000000    -1.322000000
H     2.804000000    -4.078000000    -1.614000000
O     1.464000000    -1.124000000    -2.599000000
H     0.974000000    -0.441000000    -3.056000000
H     1.145000000    -1.084000000    -1.697000000
O    -2.171000000     4.394000000    -3.568000000
H    -1.342000000     4.449000000    -3.092000000
H    -2.403000000     3.465000000    -3.539000000
O     5.479000000     4.841000000     3.844000000
H     6.277000000     4.824000000     4.371000000
H     5.672000000     4.274000000     3.098000000
O    -3.839000000     1.207000000     1.386000000
H    -4.219000000     2.080000000     1.288000000
H    -4.408000000     0.638000000     0.869000000
O    -7.218000000     2.192000000     1.464000000
H    -6.974000000     1.550000000     0.797000000
H    -7.621000000     1.672000000     2.159000000
O     4.185000000    -3.319000000     1.860000000
H     3.526000000    -2.984000000     1.253000000
H     5.002000000    -3.298000000     1.362000000
O     0.128000000    -0.345000000     4.482000000
H    -0.212000000     0.018000000     5.300000000
H    -0.613000000    -0.310000000     3.878000000
O     1.884000000     4.424000000    -0.935000000
H     1.481000000     4.183000000    -1.769000000
H     1.167000000     4.382000000    -0.302000000
O     1.485000000    -5.014000000     0.619000000
H     1.823000000    -4.323000000     0.049000000
H     2.035000000    -5.773000000     0.427000000
O     3.145000000     1.614000000    -3.443000000
H     2.963000000     0.703000000    -3.210000000
H     2.316000000     2.069000000    -3.297000000
O    -4.966000000    -2.415000000     4.414000000
H    -4.717000000    -2.463000000     3.491000000
H    -4.845000000    -1.495000000     4.648000000
O    -2.407000000    -0.392000000    -5.094000000
H    -2.351000000    -1.345000000    -5.164000000
H    -3.011000000    -0.137000000    -5.792000000
O     0.045000000     0.538000000    -4.219000000
H    -0.755000000     0.128000000    -4.549000000
H     0.314000000     1.134000000    -4.918000000
O    -6.851000000     1.576000000    -2.984000000
H    -7.661000000     1.113000000    -2.770000000
H    -7.138000000     2.442000000    -3.272000000
O     0.628000000    -5.749000000     3.657000000
H     1.363000000    -5.748000000     3.043000000
H     0.322000000    -4.842000000     3.664000000
O     0.421000000     3.429000000    -2.772000000
H     0.380000000     3.618000000    -3.709000000
H    -0.130000000     2.655000000    -2.659000000
O     2.436000000     1.088000000     5.581000000
H     2.104000000     0.539000000     4.871000000
H     2.447000000     0.511000000     6.345000000
O    -0.291000000     4.593000000     1.455000000
H    -0.744000000     5.065000000     2.154000000
H     0.544000000     4.332000000     1.845000000
O     6.421000000    -3.159000000     0.508000000
H     6.424000000    -2.308000000     0.070000000
H     7.347000000    -3.371000000     0.626000000
O    -2.742000000     1.682000000    -3.313000000
H    -2.425000000     0.984000000    -3.886000000
H    -2.841000000     1.263000000    -2.458000000
O     6.168000000    -0.848000000     4.918000000
H     5.820000000    -0.651000000     4.048000000
H     7.029000000    -1.231000000     4.751000000
O     6.908000000     1.901000000     0.871000000
H     6.523000000     2.774000000     0.807000000
H     7.830000000     2.059000000     1.074000000
O    -1.158000000    -6.076000000     0.432000000
H    -1.220000000    -5.371000000    -0.213000000
H    -0.315000000    -5.935000000     0.862000000
O    -7.645000000    -2.209000000    -1.242000000
H    -7.397000000    -1.700000000    -0.470000000
H    -6.991000000    -2.906000000    -1.289000000
O    -1.828000000    -0.171000000     2.735000000
H    -1.205000000     0.013000000     2.032000000
H    -2.557000000     0.427000000     2.572000000
O    -7.026000000    -1.756000000     1.450000000
H    -7.137000000    -1.274000000     2.269000000
H    -6.085000000    -1.923000000     1.395000000
O     6.118000000    -0.890000000    -3.224000000
H     6.489000000    -0.377000000    -3.941000000
H     6.485000000    -1.766000000    -3.340000000
O    -5.185000000     2.352000000    -5.148000000
H    -5.085000000     3.198000000    -4.712000000
H    -5.271000000     1.722000000    -4.432000000
O    -2.063000000    -4.157000000    -1.289000000
H    -2.396000000    -4.206000000    -2.185000000
H    -2.339000000    -3.295000000    -0.977000000
