161
-3046.24352
C    -0.244000000    -1.339000000     0.414000000
H    -0.345000000    -2.289000000     0.932000000
C     0.999000000    -0.775000000     0.251000000
H     1.932000000    -1.244000000     0.552000000
C     1.076000000     0.539000000    -0.308000000
C     2.450000000     1.040000000    -0.839000000
H     2.510000000     1.830000000    -1.590000000
H     2.950000000     1.393000000     0.064000000
H     3.154000000     0.244000000    -1.089000000
C    -0.128000000     1.214000000    -0.540000000
H    -0.110000000     2.220000000    -0.953000000
C    -1.371000000     0.636000000    -0.262000000
H    -2.290000000     1.217000000    -0.283000000
C    -1.424000000    -0.655000000     0.301000000
C    -2.680000000    -1.204000000     0.924000000
O    -3.762000000    -0.641000000     0.781000000
O    -2.709000000    -2.184000000     1.643000000
O    -0.400000000     5.831000000     0.194000000
H    -1.258000000     5.917000000     0.609000000
H     0.039000000     5.141000000     0.691000000
O     0.891000000     2.232000000    -4.151000000
H     1.845000000     2.234000000    -4.072000000
H     0.649000000     3.158000000    -4.155000000
O     4.555000000     1.045000000     2.518000000
H     4.550000000     0.096000000     2.395000000
H     5.154000000     1.189000000     3.251000000
O     1.349000000    -4.021000000     2.841000000
H     0.451000000    -3.919000000     3.156000000
H     1.256000000    -4.425000000     1.978000000
O    -6.668000000     2.293000000    -1.357000000
H    -5.873000000     2.642000000    -1.760000000
H    -6.510000000     2.365000000    -0.416000000
O    -1.351000000    -3.643000000     6.092000000
H    -1.721000000    -3.436000000     5.234000000
H    -0.779000000    -2.901000000     6.291000000
O     7.774000000     0.552000000    -2.075000000
H     7.296000000    -0.091000000    -2.597000000
H     7.166000000     0.794000000    -1.377000000
O    -3.919000000    -3.850000000    -1.736000000
H    -4.536000000    -4.523000000    -1.448000000
H    -4.459000000    -3.071000000    -1.867000000
O     4.438000000     3.888000000    -1.027000000
H     4.450000000     3.932000000    -0.070000000
H     4.411000000     2.951000000    -1.223000000
O    -8.793000000    -2.039000000     0.637000000
H    -7.952000000    -1.995000000     1.091000000
H    -9.140000000    -1.149000000     0.688000000
O    -1.857000000     2.882000000    -3.134000000
H    -1.146000000     2.493000000    -2.623000000
H    -1.419000000     3.492000000    -3.728000000
O    -6.172000000    -1.522000000     1.394000000
H    -6.374000000    -0.595000000     1.523000000
H    -5.305000000    -1.524000000     0.989000000
O     5.117000000    -0.922000000    -2.685000000
H     4.806000000    -1.056000000    -1.790000000
H     5.892000000    -1.479000000    -2.756000000
O    -0.133000000     4.873000000    -3.967000000
H    -0.201000000     5.526000000    -3.271000000
H     0.674000000     5.098000000    -4.430000000
O    -3.844000000    -4.652000000     1.835000000
H    -4.765000000    -4.481000000     2.031000000
H    -3.472000000    -3.787000000     1.661000000
O    -2.529000000    -6.836000000     0.451000000
H    -2.900000000    -6.146000000     1.002000000
H    -2.483000000    -7.601000000     1.025000000
O    -4.161000000     1.062000000    -3.996000000
H    -3.474000000     1.680000000    -3.749000000
H    -3.689000000     0.278000000    -4.277000000
O    -1.156000000    -3.575000000    -2.079000000
H    -2.101000000    -3.603000000    -1.933000000
H    -0.795000000    -3.257000000    -1.252000000
O    -1.380000000     2.684000000     2.478000000
H    -0.971000000     3.229000000     3.150000000
H    -1.378000000     1.802000000     2.850000000
O     1.306000000     4.095000000     1.426000000
H     2.247000000     3.924000000     1.413000000
H     0.923000000     3.296000000     1.790000000
O    -5.618000000    -5.927000000    -0.539000000
H    -6.536000000    -5.669000000    -0.625000000
H    -5.396000000    -5.723000000     0.369000000
O     5.981000000     1.758000000    -4.585000000
H     5.489000000     2.576000000    -4.518000000
H     5.508000000     1.147000000    -4.020000000
O     0.397000000     7.134000000    -2.210000000
H     0.310000000     6.723000000    -1.350000000
H     1.093000000     7.782000000    -2.096000000
O    -4.009000000     3.366000000     2.920000000
H    -3.058000000     3.355000000     2.817000000
H    -4.274000000     2.455000000     2.793000000
O     3.215000000    -5.021000000    -1.479000000
H     3.598000000    -5.802000000    -1.078000000
H     3.798000000    -4.308000000    -1.219000000
O     2.353000000     0.726000000     4.625000000
H     2.198000000     0.009000000     4.011000000
H     3.105000000     1.194000000     4.262000000
O    -1.539000000    -4.004000000     3.153000000
H    -1.888000000    -4.817000000     2.790000000
H    -1.927000000    -3.314000000     2.614000000
O    -6.283000000     3.396000000     1.414000000
H    -5.491000000     3.532000000     1.934000000
H    -6.451000000     4.246000000     1.008000000
O     1.251000000    -5.494000000     0.438000000
H     0.587000000    -6.003000000    -0.028000000
H     1.944000000    -5.356000000    -0.208000000
O    -4.187000000     4.070000000    -2.090000000
H    -4.153000000     4.988000000    -2.360000000
H    -3.657000000     3.609000000    -2.740000000
O     4.530000000     6.441000000    -3.075000000
H     4.460000000     5.599000000    -2.625000000
H     5.409000000     6.437000000    -3.453000000
O     4.691000000    -1.643000000    -5.324000000
H     5.368000000    -2.149000000    -5.773000000
H     5.058000000    -1.468000000    -4.457000000
O    -5.197000000    -2.363000000     4.066000000
H    -5.391000000    -2.457000000     3.133000000
H    -5.316000000    -3.242000000     4.426000000
O     4.410000000    -1.446000000     1.663000000
H     3.824000000    -1.664000000     2.388000000
H     5.286000000    -1.635000000     1.999000000
O    -4.880000000    -1.017000000    -1.597000000
H    -4.589000000    -0.234000000    -2.065000000
H    -4.666000000    -0.841000000    -0.681000000
O     3.472000000     3.102000000    -3.900000000
H     3.412000000     3.528000000    -4.755000000
H     3.891000000     3.753000000    -3.336000000
O     6.064000000     1.544000000     0.017000000
H     5.550000000     1.342000000     0.799000000
H     6.974000000     1.462000000     0.301000000
O    -3.200000000     4.977000000     0.611000000
H    -2.878000000     4.091000000     0.780000000
H    -3.521000000     4.947000000    -0.290000000
O     1.035000000    -0.476000000    -3.470000000
H     0.756000000     0.396000000    -3.749000000
H     0.944000000    -0.464000000    -2.517000000
O    -6.658000000    -4.501000000     1.522000000
H    -7.382000000    -4.664000000     2.127000000
H    -6.860000000    -3.651000000     1.130000000
O    -7.436000000     0.886000000     1.653000000
H    -7.005000000     1.739000000     1.595000000
H    -8.062000000     0.982000000     2.371000000
O    -2.635000000    -1.414000000     4.355000000
H    -3.564000000    -1.610000000     4.239000000
H    -2.238000000    -1.627000000     3.510000000
O    -1.030000000     0.814000000     4.474000000
H    -0.210000000     0.612000000     4.925000000
H    -1.510000000    -0.014000000     4.467000000
O    -4.694000000     0.816000000     3.120000000
H    -4.217000000     0.204000000     2.560000000
H    -5.391000000     0.289000000     3.512000000
O     2.897000000     0.555000000    -5.892000000
H     3.697000000     0.077000000    -5.675000000
H     2.286000000     0.331000000    -5.190000000
O     3.048000000    -2.116000000     4.083000000
H     3.001000000    -2.163000000     5.037000000
H     2.483000000    -2.827000000     3.780000000
O     4.287000000     3.914000000     1.851000000
H     4.692000000     4.596000000     2.387000000
H     4.496000000     3.097000000     2.303000000
O    -2.086000000    -0.866000000    -4.191000000
H    -1.304000000    -0.875000000    -3.638000000
H    -1.983000000    -1.626000000    -4.763000000
