161
-3045.02999
C    -0.024000000    -1.385000000     0.457000000
H     0.108000000    -2.408000000     0.802000000
C     1.033000000    -0.702000000    -0.161000000
H     1.971000000    -1.207000000    -0.379000000
C     0.920000000     0.652000000    -0.457000000
C     2.173000000     1.381000000    -0.913000000
H     1.946000000     2.448000000    -0.963000000
H     2.947000000     1.384000000    -0.142000000
H     2.614000000     0.907000000    -1.792000000
C    -0.311000000     1.232000000    -0.446000000
H    -0.443000000     2.213000000    -0.894000000
C    -1.408000000     0.517000000     0.083000000
H    -2.359000000     1.040000000     0.040000000
C    -1.251000000    -0.759000000     0.537000000
C    -2.348000000    -1.550000000     1.225000000
O    -3.462000000    -1.231000000     1.047000000
O    -2.098000000    -2.532000000     1.949000000
O     2.733000000    -2.179000000    -2.685000000
H     1.852000000    -2.535000000    -2.801000000
H     2.982000000    -2.441000000    -1.798000000
O     5.206000000     2.493000000    -1.782000000
H     4.903000000     2.849000000    -0.946000000
H     5.446000000     1.588000000    -1.584000000
O     0.722000000     5.661000000     0.244000000
H     1.186000000     5.081000000     0.848000000
H     1.247000000     6.461000000     0.229000000
O     0.742000000     1.848000000    -4.596000000
H     1.507000000     2.230000000    -4.165000000
H     0.282000000     2.596000000    -4.976000000
O     5.955000000     2.825000000     3.495000000
H     5.126000000     2.423000000     3.755000000
H     5.734000000     3.740000000     3.322000000
O     3.164000000    -5.249000000     1.533000000
H     2.663000000    -5.189000000     2.347000000
H     2.959000000    -6.119000000     1.190000000
O    -3.937000000     4.193000000    -0.750000000
H    -3.250000000     3.980000000    -0.118000000
H    -4.450000000     4.880000000    -0.323000000
O    -0.039000000    -3.717000000     4.622000000
H    -0.093000000    -4.265000000     5.405000000
H    -0.521000000    -2.922000000     4.851000000
O    -3.647000000    -3.563000000    -2.698000000
H    -2.995000000    -3.344000000    -2.032000000
H    -4.318000000    -2.886000000    -2.608000000
O     2.675000000     5.197000000    -2.054000000
H     1.953000000     5.139000000    -1.428000000
H     3.462000000     5.221000000    -1.510000000
O    -6.659000000     1.539000000     2.015000000
H    -5.763000000     1.604000000     2.344000000
H    -6.820000000     2.381000000     1.590000000
O    -2.415000000     2.512000000    -4.665000000
H    -1.898000000     2.084000000    -5.349000000
H    -3.154000000     2.901000000    -5.132000000
O    -5.051000000    -6.324000000     0.448000000
H    -4.358000000    -5.823000000     0.878000000
H    -4.765000000    -7.235000000     0.515000000
O    -4.280000000     1.032000000     2.900000000
H    -3.482000000     0.990000000     3.426000000
H    -4.133000000     0.405000000     2.191000000
O     5.906000000    -0.161000000    -1.026000000
H     6.400000000    -0.036000000    -0.215000000
H     5.968000000    -1.100000000    -1.202000000
O     0.149000000     4.563000000    -5.184000000
H    -0.669000000     4.811000000    -5.614000000
H     0.176000000     5.101000000    -4.392000000
O    -3.551000000    -5.193000000     2.354000000
H    -4.294000000    -5.286000000     2.949000000
H    -3.428000000    -4.247000000     2.269000000
O    -1.655000000    -7.106000000     2.154000000
H    -2.386000000    -6.488000000     2.160000000
H    -0.891000000    -6.576000000     2.381000000
O    -2.532000000     0.431000000    -2.774000000
H    -2.527000000     1.125000000    -3.433000000
H    -1.830000000    -0.161000000    -3.044000000
O    -0.213000000    -5.624000000    -2.422000000
H    -0.367000000    -4.679000000    -2.409000000
H     0.492000000    -5.743000000    -3.058000000
O     1.740000000     3.532000000     1.943000000
H     1.451000000     2.707000000     2.332000000
H     1.405000000     4.206000000     2.534000000
O    -6.179000000    -3.033000000    -1.344000000
H    -5.848000000    -2.135000000    -1.339000000
H    -5.747000000    -3.452000000    -0.601000000
O     6.842000000     2.132000000    -4.069000000
H     6.603000000     2.615000000    -4.860000000
H     6.109000000     2.274000000    -3.471000000
O     0.336000000     6.771000000    -2.830000000
H    -0.336000000     6.151000000    -2.548000000
H     0.930000000     6.838000000    -2.082000000
O    -3.721000000     4.140000000     2.405000000
H    -3.661000000     3.492000000     3.107000000
H    -2.861000000     4.117000000     1.985000000
O     6.262000000    -2.869000000    -1.557000000
H     6.238000000    -3.000000000    -2.505000000
H     7.107000000    -2.451000000    -1.394000000
O     3.610000000     1.620000000     4.557000000
H     4.294000000     0.968000000     4.708000000
H     2.945000000     1.428000000     5.217000000
O    -0.290000000    -4.751000000     2.292000000
H    -0.143000000    -4.613000000     3.227000000
H    -0.895000000    -4.053000000     2.040000000
O    -2.129000000     5.091000000    -2.865000000
H    -2.862000000     4.913000000    -2.275000000
H    -2.261000000     4.490000000    -3.598000000
O     3.258000000     0.315000000    -6.164000000
H     3.959000000     0.367000000    -5.515000000
H     2.474000000     0.597000000    -5.693000000
O     4.588000000    -0.596000000    -3.755000000
H     4.870000000    -0.282000000    -2.896000000
H     3.854000000    -1.181000000    -3.567000000
O    -4.766000000    -2.221000000     4.968000000
H    -5.306000000    -1.646000000     5.511000000
H    -5.293000000    -3.012000000     4.860000000
O    -4.324000000    -0.852000000    -1.318000000
H    -3.633000000    -0.275000000    -1.644000000
H    -4.172000000    -0.897000000    -0.374000000
O    -5.724000000     0.389000000    -3.558000000
H    -5.258000000     0.034000000    -2.801000000
H    -5.185000000     0.139000000    -4.309000000
O     6.994000000     1.026000000     1.229000000
H     6.548000000     1.858000000     1.384000000
H     7.780000000     1.070000000     1.773000000
O    -1.448000000     3.769000000     0.927000000
H    -1.076000000     2.950000000     0.598000000
H    -0.809000000     4.438000000     0.680000000
O    -0.210000000    -2.942000000    -2.350000000
H    -0.164000000    -2.373000000    -1.582000000
H    -0.740000000    -2.452000000    -2.979000000
O    -5.472000000    -2.967000000     1.588000000
H    -6.131000000    -2.526000000     2.126000000
H    -4.683000000    -2.436000000     1.694000000
O     3.583000000    -3.212000000    -0.418000000
H     3.579000000    -3.874000000     0.273000000
H     4.508000000    -3.102000000    -0.640000000
O    -1.981000000    -1.746000000     4.567000000
H    -2.907000000    -1.634000000     4.779000000
H    -1.979000000    -2.112000000     3.683000000
O     1.220000000     0.719000000     2.606000000
H     2.049000000     0.366000000     2.928000000
H     1.146000000     0.383000000     1.713000000
O    -1.138000000     0.785000000     4.147000000
H    -0.344000000     0.639000000     3.633000000
H    -1.661000000    -0.005000000     4.010000000
O     3.178000000     3.153000000    -3.719000000
H     3.751000000     2.685000000    -3.112000000
H     2.906000000     3.934000000    -3.238000000
O     1.929000000    -2.500000000     3.155000000
H     1.216000000    -2.870000000     3.676000000
H     1.959000000    -3.046000000     2.369000000
O     4.119000000     3.509000000     0.786000000
H     4.647000000     4.118000000     1.303000000
H     3.244000000     3.567000000     1.168000000
O    -7.562000000    -1.171000000     2.150000000
H    -7.968000000    -1.184000000     3.017000000
H    -7.231000000    -0.278000000     2.054000000
O    -0.414000000    -0.723000000    -4.259000000
H    -0.264000000    -1.055000000    -5.144000000
H     0.233000000    -0.026000000    -4.152000000
O    -6.165000000     2.663000000    -1.899000000
H    -5.628000000     1.897000000    -2.101000000
H    -5.551000000     3.293000000    -1.521000000
