161
-3049.65199
C    -1.194000000     0.117000000    -0.950000000
H    -2.018000000     0.399000000    -1.601000000
C    -0.002000000     0.855000000    -0.991000000
H     0.073000000     1.724000000    -1.640000000
C     0.983000000     0.616000000    -0.045000000
C     2.241000000     1.546000000     0.021000000
H     3.231000000     1.107000000     0.157000000
H     2.307000000     2.111000000    -0.911000000
H     2.079000000     2.262000000     0.830000000
C     0.938000000    -0.407000000     0.832000000
H     1.825000000    -0.476000000     1.456000000
C    -0.204000000    -1.183000000     0.865000000
H    -0.258000000    -1.917000000     1.665000000
C    -1.294000000    -0.925000000    -0.005000000
C    -2.555000000    -1.725000000     0.107000000
O    -2.510000000    -2.909000000     0.468000000
O    -3.639000000    -1.189000000    -0.263000000
O    -3.554000000    -1.516000000    -3.076000000
H    -4.428000000    -1.280000000    -3.387000000
H    -3.564000000    -1.294000000    -2.145000000
O     0.392000000    -3.933000000    -2.889000000
H     0.631000000    -3.125000000    -2.435000000
H    -0.216000000    -4.372000000    -2.294000000
O     4.902000000     4.278000000    -1.416000000
H     4.329000000     3.556000000    -1.675000000
H     4.328000000     4.882000000    -0.943000000
O    -1.353000000     5.009000000    -5.903000000
H    -1.110000000     4.259000000    -5.360000000
H    -1.266000000     4.691000000    -6.802000000
O     8.192000000     1.684000000    -0.458000000
H     7.786000000     1.887000000     0.384000000
H     7.980000000     2.434000000    -1.014000000
O     2.144000000    -1.860000000     5.430000000
H     1.268000000    -1.515000000     5.259000000
H     2.525000000    -1.989000000     4.561000000
O    -3.508000000    -3.392000000     2.878000000
H    -3.153000000    -3.063000000     2.052000000
H    -3.170000000    -4.285000000     2.945000000
O    -4.697000000    -3.870000000    -0.791000000
H    -4.042000000    -3.407000000    -0.267000000
H    -4.287000000    -3.974000000    -1.649000000
O    -3.669000000     5.367000000    -2.881000000
H    -3.073000000     5.938000000    -3.365000000
H    -3.118000000     4.647000000    -2.577000000
O    -6.464000000    -1.573000000    -0.737000000
H    -6.368000000    -1.235000000    -1.628000000
H    -5.567000000    -1.724000000    -0.440000000
O    -0.341000000    -0.874000000     5.051000000
H    -1.177000000    -1.334000000     4.971000000
H    -0.414000000    -0.136000000     4.447000000
O     5.128000000     1.653000000     3.075000000
H     4.948000000     1.037000000     2.365000000
H     5.867000000     2.173000000     2.759000000
O    -3.631000000    -4.784000000    -3.415000000
H    -3.049000000    -4.533000000    -4.133000000
H    -4.425000000    -5.095000000    -3.849000000
O     1.460000000     3.432000000    -4.894000000
H     1.965000000     3.327000000    -5.700000000
H     0.693000000     2.872000000    -5.016000000
O    -4.381000000     1.432000000    -0.887000000
H    -5.093000000     1.759000000    -0.337000000
H    -4.168000000     0.575000000    -0.519000000
O    -3.125000000     1.866000000     2.006000000
H    -3.632000000     1.129000000     2.345000000
H    -3.737000000     2.602000000     2.017000000
O     2.045000000    -1.690000000    -1.970000000
H     1.814000000    -0.937000000    -2.514000000
H     1.906000000    -1.388000000    -1.072000000
O    -2.358000000     3.116000000    -1.865000000
H    -2.797000000     2.611000000    -1.181000000
H    -2.698000000     2.756000000    -2.684000000
O    -1.249000000     3.838000000     1.521000000
H    -1.910000000     3.147000000     1.580000000
H    -1.321000000     4.161000000     0.623000000
O    -9.036000000    -1.898000000     0.160000000
H    -8.237000000    -1.837000000    -0.363000000
H    -9.253000000    -0.990000000     0.373000000
O    -6.483000000     0.972000000     1.300000000
H    -6.618000000     0.204000000     0.745000000
H    -6.009000000     0.637000000     2.061000000
O     5.261000000    -3.169000000     1.378000000
H     5.591000000    -3.582000000     0.580000000
H     5.488000000    -2.245000000     1.281000000
O     1.903000000     1.810000000     4.197000000
H     1.108000000     1.432000000     3.821000000
H     2.441000000     2.041000000     3.440000000
O    -1.587000000    -4.825000000     5.108000000
H    -2.144000000    -5.439000000     4.630000000
H    -2.003000000    -3.973000000     4.978000000
O     3.223000000     6.020000000    -0.331000000
H     2.577000000     6.241000000    -1.002000000
H     2.707000000     5.652000000     0.386000000
O     1.972000000    -4.193000000     0.249000000
H     2.130000000    -3.381000000     0.731000000
H     2.795000000    -4.677000000     0.319000000
O     3.571000000     2.288000000    -3.157000000
H     3.807000000     1.365000000    -3.247000000
H     2.762000000     2.379000000    -3.660000000
O    -0.855000000     2.036000000    -5.597000000
H    -1.790000000     2.064000000    -5.396000000
H    -0.652000000     1.103000000    -5.665000000
O    -2.765000000    -1.992000000     4.952000000
H    -3.213000000    -2.510000000     4.283000000
H    -3.464000000    -1.493000000     5.376000000
O    -1.237000000    -1.313000000    -4.247000000
H    -2.044000000    -1.371000000    -3.736000000
H    -0.750000000    -2.103000000    -4.016000000
O     1.171000000     0.567000000    -3.767000000
H     0.304000000     0.931000000    -3.587000000
H     1.025000000    -0.058000000    -4.477000000
O    -6.245000000    -0.523000000    -3.405000000
H    -7.180000000    -0.415000000    -3.235000000
H    -5.902000000     0.371000000    -3.435000000
O    -4.821000000    -6.048000000     0.899000000
H    -4.668000000    -6.815000000     0.348000000
H    -4.667000000    -5.302000000     0.318000000
O     2.240000000     5.331000000    -3.128000000
H     1.402000000     5.775000000    -3.000000000
H     2.002000000     4.449000000    -3.417000000
O     1.266000000     5.404000000     1.488000000
H     1.521000000     5.514000000     2.404000000
H     0.730000000     4.611000000     1.482000000
O     5.925000000    -0.257000000     0.520000000
H     5.989000000     0.341000000    -0.224000000
H     6.826000000    -0.353000000     0.828000000
O     2.743000000    -2.988000000     3.087000000
H     2.123000000    -3.717000000     3.112000000
H     3.522000000    -3.351000000     2.664000000
O    -3.326000000     2.855000000    -4.528000000
H    -3.800000000     3.607000000    -4.883000000
H    -3.813000000     2.094000000    -4.844000000
O     0.128000000    -6.420000000     0.301000000
H    -0.597000000    -6.014000000    -0.175000000
H     0.809000000    -5.749000000     0.318000000
O    -0.457000000     1.023000000     3.116000000
H    -1.267000000     1.433000000     2.814000000
H    -0.134000000     0.543000000     2.354000000
O     5.171000000     3.700000000    -5.115000000
H     4.368000000     3.657000000    -5.634000000
H     4.885000000     4.018000000    -4.258000000
O     2.932000000     5.626000000     3.670000000
H     3.772000000     5.172000000     3.617000000
H     2.842000000     5.857000000     4.595000000
O    -5.172000000    -0.114000000     3.390000000
H    -4.855000000     0.021000000     4.283000000
H    -5.597000000    -0.971000000     3.413000000
O    -6.230000000    -2.590000000     3.597000000
H    -6.635000000    -3.388000000     3.938000000
H    -5.361000000    -2.867000000     3.308000000
O     6.341000000    -0.784000000    -2.539000000
H     6.726000000    -1.631000000    -2.315000000
H     7.032000000    -0.149000000    -2.350000000
O    -6.711000000     2.133000000    -3.228000000
H    -5.973000000     2.488000000    -2.732000000
H    -7.066000000     2.885000000    -3.701000000
O    -1.548000000    -4.859000000    -1.101000000
H    -2.187000000    -4.853000000    -1.814000000
H    -1.877000000    -4.209000000    -0.480000000
O    -7.600000000    -4.709000000     1.149000000
H    -7.856000000    -3.831000000     0.867000000
H    -6.721000000    -4.829000000     0.790000000
