161
-3043.41143
C    -0.575000000     0.922000000     1.032000000
H    -0.960000000     1.600000000     1.789000000
C     0.738000000     0.935000000     0.541000000
H     1.469000000     1.661000000     0.887000000
C     1.115000000     0.008000000    -0.427000000
C     2.526000000     0.078000000    -1.048000000
H     2.960000000    -0.908000000    -1.229000000
H     2.673000000     0.704000000    -1.931000000
H     3.256000000     0.493000000    -0.351000000
C     0.167000000    -0.822000000    -1.019000000
H     0.484000000    -1.394000000    -1.887000000
C    -1.120000000    -0.860000000    -0.431000000
H    -1.877000000    -1.507000000    -0.867000000
C    -1.446000000    -0.076000000     0.606000000
C    -2.764000000    -0.253000000     1.290000000
O    -3.586000000    -1.064000000     0.868000000
O    -3.059000000     0.481000000     2.184000000
O    -2.733000000    -2.874000000    -3.734000000
H    -3.470000000    -2.842000000    -4.343000000
H    -3.128000000    -3.093000000    -2.891000000
O    -0.258000000    -1.940000000    -4.685000000
H     0.349000000    -2.572000000    -4.299000000
H    -1.126000000    -2.309000000    -4.519000000
O     3.019000000     4.200000000    -4.998000000
H     2.836000000     4.872000000    -4.341000000
H     2.534000000     3.432000000    -4.697000000
O     1.304000000     0.350000000    -4.384000000
H     0.610000000    -0.298000000    -4.501000000
H     2.065000000    -0.161000000    -4.110000000
O     2.802000000     3.440000000     3.525000000
H     2.727000000     2.506000000     3.717000000
H     2.848000000     3.486000000     2.570000000
O     2.757000000     0.609000000     3.741000000
H     3.406000000    -0.023000000     3.433000000
H     2.319000000     0.167000000     4.468000000
O     1.197000000     5.633000000    -1.693000000
H     2.055000000     5.227000000    -1.818000000
H     0.832000000     5.190000000    -0.927000000
O     2.863000000    -3.357000000     1.103000000
H     2.507000000    -3.891000000     0.393000000
H     2.105000000    -2.888000000     1.453000000
O    -8.310000000    -0.207000000     0.371000000
H    -8.626000000     0.592000000    -0.051000000
H    -7.618000000    -0.526000000    -0.208000000
O    -3.192000000    -5.719000000     3.092000000
H    -2.842000000    -5.132000000     2.422000000
H    -3.820000000    -6.269000000     2.623000000
O    -5.144000000     0.885000000     5.617000000
H    -5.677000000     1.459000000     5.067000000
H    -4.718000000     1.476000000     6.238000000
O     0.239000000    -2.120000000     5.629000000
H    -0.148000000    -1.436000000     5.083000000
H     0.139000000    -1.796000000     6.525000000
O    -5.647000000     0.967000000     1.703000000
H    -4.730000000     0.825000000     1.938000000
H    -6.039000000     0.094000000     1.732000000
O    -0.221000000     1.976000000     5.472000000
H    -1.094000000     2.114000000     5.105000000
H     0.232000000     2.807000000     5.330000000
O     5.206000000     2.447000000    -3.150000000
H     4.928000000     1.822000000    -3.820000000
H     6.012000000     2.073000000    -2.794000000
O     5.227000000    -4.648000000     0.600000000
H     5.067000000    -5.374000000     1.203000000
H     4.489000000    -4.055000000     0.738000000
O     0.290000000    -0.677000000    -7.059000000
H    -0.517000000    -0.541000000    -7.556000000
H     0.017000000    -1.178000000    -6.291000000
O     1.072000000     2.772000000    -3.289000000
H     0.937000000     1.849000000    -3.503000000
H     0.272000000     3.207000000    -3.584000000
O     3.695000000    -4.257000000    -2.966000000
H     4.613000000    -4.116000000    -2.736000000
H     3.298000000    -4.600000000    -2.165000000
O     0.675000000    -1.976000000     2.039000000
H     0.407000000    -1.451000000     1.285000000
H     0.325000000    -1.505000000     2.795000000
O    -1.934000000     6.141000000     3.754000000
H    -2.414000000     5.576000000     3.149000000
H    -1.745000000     5.581000000     4.507000000
O     3.742000000     4.649000000     0.632000000
H     3.663000000     4.323000000    -0.264000000
H     2.860000000     4.944000000     0.858000000
O     2.310000000    -5.303000000    -0.757000000
H     1.415000000    -5.599000000    -0.924000000
H     2.839000000    -6.099000000    -0.808000000
O    -5.786000000     3.307000000     0.225000000
H    -6.004000000     2.996000000    -0.654000000
H    -5.723000000     2.510000000     0.751000000
O     0.989000000     4.932000000     1.013000000
H     0.697000000     4.262000000     1.631000000
H     1.104000000     5.717000000     1.548000000
O    -3.630000000    -3.814000000     1.106000000
H    -3.637000000    -2.857000000     1.075000000
H    -4.515000000    -4.051000000     1.383000000
O     5.874000000    -1.138000000    -1.629000000
H     4.949000000    -1.203000000    -1.389000000
H     5.903000000    -1.411000000    -2.546000000
O    -2.077000000     4.380000000    -0.356000000
H    -1.419000000     3.685000000    -0.354000000
H    -2.708000000     4.111000000    -1.024000000
O    -7.269000000    -3.361000000    -1.560000000
H    -6.844000000    -2.567000000    -1.237000000
H    -8.118000000    -3.064000000    -1.885000000
O    -2.033000000     1.052000000    -2.806000000
H    -1.383000000     0.457000000    -2.432000000
H    -1.641000000     1.349000000    -3.627000000
O     1.144000000    -3.614000000    -3.383000000
H     2.052000000    -3.834000000    -3.176000000
H     0.624000000    -4.220000000    -2.856000000
O    -0.820000000    -4.551000000     1.461000000
H    -0.445000000    -3.677000000     1.353000000
H    -1.532000000    -4.586000000     0.822000000
O     3.293000000    -1.758000000    -4.692000000
H     2.964000000    -1.783000000    -5.591000000
H     3.212000000    -2.659000000    -4.382000000
O    -6.773000000     2.410000000     4.215000000
H    -6.603000000     3.343000000     4.344000000
H    -6.341000000     2.200000000     3.387000000
O     6.856000000    -0.090000000     0.618000000
H     6.571000000    -0.352000000    -0.257000000
H     7.362000000     0.710000000     0.475000000
O    -0.138000000    -5.675000000    -2.148000000
H    -0.167000000    -6.303000000    -2.870000000
H    -1.019000000    -5.697000000    -1.775000000
O     3.288000000     4.033000000    -2.137000000
H     3.940000000     3.955000000    -2.833000000
H     2.683000000     3.308000000    -2.294000000
O    -4.552000000    -0.374000000    -2.923000000
H    -3.786000000     0.192000000    -3.016000000
H    -4.622000000    -0.824000000    -3.765000000
O    -2.899000000    -5.795000000    -0.551000000
H    -3.278000000    -5.868000000    -1.426000000
H    -3.502000000    -5.223000000    -0.075000000
O    -5.535000000    -1.962000000     2.550000000
H    -4.972000000    -1.406000000     3.089000000
H    -5.055000000    -2.067000000     1.729000000
O    -0.817000000    -0.183000000     3.886000000
H    -0.659000000     0.644000000     4.340000000
H    -1.623000000    -0.036000000     3.391000000
O    -2.435000000     2.499000000     3.857000000
H    -2.502000000     3.378000000     3.485000000
H    -2.888000000     1.937000000     3.228000000
O    -3.949000000    -1.414000000     5.110000000
H    -3.267000000    -1.489000000     5.778000000
H    -4.260000000    -0.512000000     5.186000000
O    -5.863000000    -1.197000000    -0.640000000
H    -5.567000000    -0.815000000    -1.467000000
H    -5.062000000    -1.306000000    -0.127000000
O     1.627000000     1.881000000    -6.559000000
H     1.517000000     1.598000000    -5.652000000
H     1.423000000     1.104000000    -7.079000000
O     5.054000000     0.717000000     2.205000000
H     4.484000000     1.360000000     1.783000000
H     5.622000000     0.402000000     1.502000000
O     5.811000000    -2.178000000    -4.267000000
H     6.257000000    -2.410000000    -5.081000000
H     4.898000000    -2.047000000    -4.523000000
O    -3.413000000     4.505000000     2.221000000
H    -4.218000000     5.020000000     2.173000000
H    -3.096000000     4.471000000     1.319000000
