161
-3040.62347
C     0.393000000    -0.528000000     1.332000000
H     0.870000000    -0.775000000     2.277000000
C     1.234000000    -0.515000000     0.204000000
H     2.304000000    -0.694000000     0.279000000
C     0.723000000    -0.029000000    -1.004000000
C     1.641000000     0.067000000    -2.185000000
H     1.594000000     1.067000000    -2.620000000
H     2.666000000    -0.208000000    -1.927000000
H     1.272000000    -0.566000000    -2.995000000
C    -0.637000000     0.405000000    -1.112000000
H    -0.874000000     0.957000000    -2.018000000
C    -1.428000000     0.341000000     0.070000000
H    -2.452000000     0.705000000     0.047000000
C    -0.953000000    -0.141000000     1.286000000
C    -1.895000000    -0.112000000     2.441000000
O    -2.973000000     0.408000000     2.332000000
O    -1.482000000    -0.390000000     3.585000000
O    -0.241000000     5.096000000     0.749000000
H     0.422000000     4.413000000     0.848000000
H    -0.950000000     4.828000000     1.333000000
O    -1.830000000     1.457000000    -4.480000000
H    -2.061000000     0.529000000    -4.448000000
H    -1.795000000     1.663000000    -5.414000000
O     5.395000000    -0.296000000    -4.989000000
H     5.404000000    -1.242000000    -4.839000000
H     4.535000000    -0.122000000    -5.370000000
O     1.067000000    -5.615000000     1.733000000
H     0.728000000    -4.724000000     1.651000000
H     0.663000000    -5.953000000     2.531000000
O    -5.953000000    -1.418000000     6.400000000
H    -6.063000000    -2.368000000     6.368000000
H    -5.533000000    -1.197000000     5.569000000
O     1.355000000     2.811000000     0.198000000
H     1.176000000     2.087000000    -0.402000000
H     2.287000000     2.729000000     0.401000000
O     2.994000000    -4.411000000    -3.438000000
H     2.609000000    -3.867000000    -4.125000000
H     2.477000000    -4.213000000    -2.658000000
O    -4.929000000     1.354000000    -3.382000000
H    -5.184000000     0.469000000    -3.123000000
H    -4.048000000     1.253000000    -3.744000000
O    -5.806000000     1.892000000     6.287000000
H    -4.923000000     1.567000000     6.111000000
H    -6.364000000     1.118000000     6.214000000
O     0.790000000     1.896000000     2.855000000
H     0.789000000     2.245000000     1.963000000
H     0.186000000     1.154000000     2.822000000
O    -1.320000000    -3.245000000    -6.553000000
H    -1.095000000    -2.685000000    -5.810000000
H    -2.205000000    -3.554000000    -6.361000000
O     2.064000000    -2.435000000    -4.995000000
H     2.399000000    -2.807000000    -5.812000000
H     2.054000000    -1.490000000    -5.149000000
O     1.476000000     3.793000000    -2.818000000
H     2.156000000     4.465000000    -2.853000000
H     1.797000000     3.098000000    -3.392000000
O    -3.405000000     4.946000000    -4.386000000
H    -2.981000000     4.383000000    -3.738000000
H    -3.557000000     4.373000000    -5.138000000
O    -2.582000000     2.429000000     8.007000000
H    -2.608000000     2.313000000     7.057000000
H    -3.500000000     2.513000000     8.264000000
O    -3.109000000    -0.784000000    -5.098000000
H    -3.306000000    -1.073000000    -5.989000000
H    -3.474000000    -1.469000000    -4.538000000
O     3.576000000     2.432000000    -4.236000000
H     4.374000000     2.316000000    -3.718000000
H     3.854000000     2.953000000    -4.989000000
O    -0.420000000    -3.321000000     0.079000000
H    -0.434000000    -2.367000000    -0.003000000
H     0.456000000    -3.574000000    -0.213000000
O    -0.413000000     5.290000000    -1.959000000
H     0.349000000     4.757000000    -2.188000000
H    -0.457000000     5.245000000    -1.004000000
O    -2.290000000     3.134000000    -2.530000000
H    -1.497000000     3.650000000    -2.381000000
H    -2.021000000     2.457000000    -3.151000000
O    -0.656000000    -2.965000000    -3.794000000
H     0.144000000    -2.723000000    -4.260000000
H    -0.382000000    -3.653000000    -3.188000000
O     2.551000000    -0.699000000     6.248000000
H     2.379000000    -0.973000000     7.149000000
H     2.075000000     0.125000000     6.153000000
O    -3.116000000    -1.840000000     8.156000000
H    -2.660000000    -1.324000000     7.491000000
H    -3.797000000    -2.306000000     7.672000000
O    -5.983000000    -3.304000000     2.940000000
H    -5.293000000    -2.712000000     2.640000000
H    -6.794000000    -2.907000000     2.619000000
O    -3.937000000    -4.053000000     5.618000000
H    -3.888000000    -4.836000000     5.070000000
H    -3.576000000    -3.355000000     5.071000000
O     2.622000000     0.441000000    -5.834000000
H     2.589000000     1.188000000    -6.431000000
H     2.668000000     0.833000000    -4.961000000
O    -4.725000000     3.218000000    -0.904000000
H    -4.185000000     3.210000000    -1.695000000
H    -5.444000000     3.815000000    -1.111000000
O     1.967000000    -2.875000000     4.458000000
H     2.246000000    -3.439000000     5.179000000
H     2.129000000    -1.986000000     4.772000000
O     3.651000000     2.379000000     1.208000000
H     3.714000000     2.658000000     2.122000000
H     4.318000000     1.698000000     1.120000000
O     4.095000000     3.831000000    -1.213000000
H     3.429000000     3.192000000    -1.470000000
H     4.403000000     3.526000000    -0.360000000
O     2.335000000    -3.865000000    -0.299000000
H     2.534000000    -4.801000000    -0.270000000
H     3.177000000    -3.447000000    -0.479000000
O    -2.479000000     5.056000000     3.231000000
H    -2.011000000     4.511000000     3.863000000
H    -2.857000000     4.433000000     2.610000000
O     5.601000000     0.537000000    -0.705000000
H     5.935000000     0.422000000     0.184000000
H     6.354000000     0.852000000    -1.205000000
O    -7.452000000     0.374000000     3.708000000
H    -7.479000000     1.243000000     3.309000000
H    -7.309000000    -0.223000000     2.974000000
O     3.813000000    -2.219000000     2.156000000
H     4.099000000    -2.301000000     1.246000000
H     2.907000000    -2.527000000     2.150000000
O    -3.278000000     3.176000000     1.430000000
H    -3.413000000     2.249000000     1.628000000
H    -3.704000000     3.304000000     0.582000000
O    -3.588000000    -2.907000000    -3.400000000
H    -3.575000000    -3.859000000    -3.495000000
H    -2.683000000    -2.675000000    -3.191000000
O    -5.602000000    -0.693000000     1.598000000
H    -5.849000000     0.149000000     1.216000000
H    -4.695000000    -0.572000000     1.879000000
O    -0.630000000    -3.152000000     3.544000000
H    -0.904000000    -2.261000000     3.326000000
H     0.266000000    -3.055000000     3.865000000
O    -6.124000000     1.740000000     0.736000000
H    -6.730000000     2.300000000     1.220000000
H    -5.609000000     2.348000000     0.204000000
O    -1.312000000    -1.109000000     6.164000000
H    -1.000000000    -0.958000000     5.272000000
H    -0.739000000    -0.573000000     6.712000000
O    -4.163000000    -0.726000000     4.595000000
H    -3.312000000    -0.546000000     4.994000000
H    -4.081000000    -0.403000000     3.698000000
O    -2.628000000     1.807000000     5.290000000
H    -2.229000000     1.181000000     4.686000000
H    -2.776000000     2.591000000     4.760000000
O     5.430000000     0.115000000     2.647000000
H     6.228000000    -0.277000000     3.000000000
H     4.883000000    -0.632000000     2.405000000
O    -5.271000000     3.881000000     3.344000000
H    -5.120000000     2.935000000     3.352000000
H    -4.854000000     4.183000000     2.537000000
O     0.675000000     1.185000000     5.855000000
H     0.741000000     1.703000000     5.052000000
H    -0.097000000     1.532000000     6.301000000
O     4.583000000    -2.272000000    -0.672000000
H     4.669000000    -1.368000000    -0.974000000
H     5.378000000    -2.705000000    -0.984000000
O     0.120000000     4.125000000     4.115000000
H     0.894000000     4.688000000     4.088000000
H     0.415000000     3.295000000     3.740000000
