161
-3032.59892
C    -0.055000000    -0.751000000     1.226000000
H     0.080000000    -1.333000000     2.134000000
C     1.050000000    -0.662000000     0.335000000
H     2.031000000    -1.052000000     0.593000000
C     0.932000000     0.088000000    -0.842000000
C     2.097000000     0.150000000    -1.816000000
H     2.305000000    -0.800000000    -2.314000000
H     2.108000000     1.048000000    -2.436000000
H     3.015000000     0.365000000    -1.266000000
C    -0.267000000     0.721000000    -1.090000000
H    -0.364000000     1.387000000    -1.944000000
C    -1.314000000     0.678000000    -0.130000000
H    -2.226000000     1.258000000    -0.241000000
C    -1.252000000    -0.094000000     0.997000000
C    -2.427000000    -0.295000000     1.974000000
O    -3.292000000     0.609000000     2.128000000
O    -2.421000000    -1.311000000     2.692000000
O    -0.961000000     1.615000000    -4.847000000
H    -1.148000000     0.721000000    -4.560000000
H    -0.008000000     1.687000000    -4.802000000
O     5.951000000    -0.424000000    -5.475000000
H     6.151000000    -0.501000000    -4.542000000
H     4.999000000    -0.512000000    -5.524000000
O    -2.644000000    -5.006000000     0.498000000
H    -2.539000000    -4.803000000     1.428000000
H    -3.183000000    -4.293000000     0.156000000
O    -0.622000000     4.896000000    -3.218000000
H    -1.356000000     4.985000000    -3.827000000
H     0.081000000     4.517000000    -3.745000000
O     0.227000000     3.137000000     0.704000000
H     0.219000000     2.956000000     1.644000000
H    -0.044000000     2.313000000     0.299000000
O     2.019000000    -4.566000000    -2.697000000
H     1.418000000    -3.934000000    -3.091000000
H     1.460000000    -5.121000000    -2.152000000
O    -3.396000000    -6.152000000     4.675000000
H    -3.085000000    -5.291000000     4.397000000
H    -3.346000000    -6.691000000     3.885000000
O    -2.012000000     5.375000000     2.097000000
H    -1.729000000     5.501000000     1.192000000
H    -2.518000000     4.564000000     2.080000000
O     4.158000000    -3.244000000    -4.353000000
H     4.475000000    -2.505000000    -3.834000000
H     3.471000000    -3.637000000    -3.815000000
O    -1.684000000     0.508000000     7.561000000
H    -1.572000000     0.054000000     6.726000000
H    -1.286000000     1.368000000     7.422000000
O    -1.772000000     2.735000000     4.349000000
H    -1.771000000     3.673000000     4.541000000
H    -2.684000000     2.534000000     4.141000000
O    -2.483000000    -1.191000000    -4.980000000
H    -3.108000000    -0.485000000    -5.142000000
H    -2.624000000    -1.806000000    -5.700000000
O     1.557000000     3.016000000    -4.671000000
H     2.391000000     3.193000000    -4.236000000
H     1.498000000     3.681000000    -5.357000000
O    -4.254000000    -2.789000000    -0.469000000
H    -3.572000000    -2.378000000    -1.001000000
H    -4.692000000    -2.057000000    -0.034000000
O     0.366000000     5.631000000    -0.839000000
H     0.386000000     4.762000000    -0.440000000
H     0.105000000     5.472000000    -1.746000000
O    -3.095000000     2.706000000    -3.553000000
H    -3.444000000     3.509000000    -3.938000000
H    -2.171000000     2.702000000    -3.802000000
O    -4.843000000    -0.256000000    -2.388000000
H    -3.948000000    -0.517000000    -2.172000000
H    -5.145000000     0.224000000    -1.618000000
O     7.351000000     1.547000000    -2.119000000
H     8.050000000     1.595000000    -2.771000000
H     6.943000000     2.412000000    -2.141000000
O     0.667000000     2.425000000     3.151000000
H    -0.214000000     2.567000000     3.497000000
H     1.163000000     2.083000000     3.894000000
O    -5.230000000    -0.251000000     5.998000000
H    -6.035000000    -0.187000000     6.512000000
H    -5.090000000     0.634000000     5.661000000
O    -7.048000000    -2.102000000     1.574000000
H    -6.813000000    -3.029000000     1.529000000
H    -6.424000000    -1.726000000     2.196000000
O    -5.708000000    -3.564000000     5.359000000
H    -5.220000000    -3.076000000     4.695000000
H    -5.742000000    -2.974000000     6.112000000
O     3.196000000    -0.554000000    -5.814000000
H     2.598000000    -0.596000000    -6.560000000
H     2.773000000    -1.081000000    -5.137000000
O    -4.277000000     2.866000000    -1.190000000
H    -3.755000000     2.801000000    -1.990000000
H    -5.185000000     2.835000000    -1.493000000
O     0.784000000    -3.696000000     3.720000000
H     1.631000000    -3.322000000     3.966000000
H     0.996000000    -4.354000000     3.058000000
O     1.909000000     0.598000000     4.783000000
H     2.452000000     0.363000000     5.536000000
H     1.641000000    -0.242000000     4.411000000
O    -0.418000000    -2.524000000     5.736000000
H    -0.422000000    -1.597000000     5.497000000
H     0.086000000    -2.948000000     5.041000000
O     4.473000000     3.063000000     0.837000000
H     4.282000000     2.648000000     1.679000000
H     5.428000000     3.123000000     0.811000000
O     5.141000000    -0.745000000    -2.840000000
H     5.116000000     0.199000000    -2.681000000
H     5.413000000    -1.121000000    -2.003000000
O     2.406000000     3.462000000    -0.742000000
H     3.107000000     3.148000000    -0.172000000
H     1.600000000     3.224000000    -0.284000000
O     1.549000000    -5.106000000     1.287000000
H     0.993000000    -5.302000000     0.532000000
H     2.345000000    -4.733000000     0.907000000
O    -5.132000000     5.034000000     2.974000000
H    -4.647000000     5.859000000     2.934000000
H    -4.538000000     4.388000000     2.592000000
O     5.028000000    -1.527000000     3.064000000
H     5.122000000    -1.039000000     2.246000000
H     4.992000000    -0.853000000     3.742000000
O    -7.322000000     1.444000000     2.080000000
H    -7.660000000     2.250000000     1.691000000
H    -7.742000000     1.398000000     2.939000000
O     3.199000000    -2.947000000     4.557000000
H     3.816000000    -2.479000000     3.994000000
H     3.426000000    -3.870000000     4.445000000
O     4.658000000     0.095000000     0.743000000
H     4.194000000     0.771000000     1.236000000
H     5.430000000     0.541000000     0.394000000
O    -3.299000000     6.055000000    -1.324000000
H    -2.652000000     5.755000000    -1.962000000
H    -3.440000000     5.300000000    -0.753000000
O     3.593000000     4.214000000    -3.058000000
H     3.245000000     3.883000000    -2.230000000
H     4.536000000     4.286000000    -2.910000000
O    -3.655000000     3.125000000     1.674000000
H    -3.544000000     2.209000000     1.926000000
H    -3.987000000     3.088000000     0.777000000
O    -2.215000000    -1.591000000    -1.844000000
H    -2.115000000    -1.646000000    -2.795000000
H    -1.333000000    -1.404000000    -1.522000000
O    -5.379000000     0.269000000     0.359000000
H    -6.082000000     0.660000000     0.879000000
H    -4.661000000     0.149000000     0.980000000
O    -1.994000000    -3.930000000     3.126000000
H    -2.333000000    -3.114000000     2.759000000
H    -1.053000000    -3.781000000     3.215000000
O    -1.084000000    -0.122000000     4.654000000
H    -1.510000000    -0.621000000     3.957000000
H    -1.256000000     0.793000000     4.433000000
O    -4.837000000    -1.689000000     3.714000000
H    -3.945000000    -1.652000000     3.368000000
H    -4.918000000    -0.900000000     4.250000000
O    -4.824000000     1.628000000     4.100000000
H    -4.368000000     1.265000000     3.340000000
H    -5.668000000     1.918000000     3.755000000
O     4.123000000     1.567000000     2.985000000
H     4.968000000     1.293000000     3.341000000
H     3.487000000     1.313000000     3.654000000
O     3.645000000    -4.037000000    -0.306000000
H     4.538000000    -3.717000000    -0.433000000
H     3.200000000    -3.836000000    -1.129000000
O     0.072000000    -3.025000000    -4.199000000
H    -0.376000000    -2.390000000    -4.758000000
H    -0.587000000    -3.698000000    -4.025000000
