161
-3065.56618
C     0.299000000    -0.936000000     1.093000000
H     0.559000000    -1.665000000     1.857000000
C     0.844000000    -0.992000000    -0.163000000
H     1.496000000    -1.846000000    -0.322000000
C     0.507000000    -0.007000000    -1.129000000
C     1.196000000    -0.066000000    -2.438000000
H     0.614000000    -0.653000000    -3.152000000
H     1.276000000     0.943000000    -2.848000000
H     2.177000000    -0.539000000    -2.365000000
C    -0.387000000     0.989000000    -0.820000000
H    -0.556000000     1.790000000    -1.535000000
C    -0.974000000     1.060000000     0.454000000
H    -1.685000000     1.815000000     0.781000000
C    -0.668000000     0.056000000     1.414000000
C    -1.370000000     0.001000000     2.747000000
O    -2.129000000     0.946000000     2.914000000
O    -1.195000000    -0.900000000     3.519000000
O     3.405000000    -3.669000000     2.057000000
H     2.537000000    -4.073000000     2.083000000
H     4.013000000    -4.404000000     2.132000000
O     2.586000000     1.127000000     1.437000000
H     2.192000000     1.922000000     1.798000000
H     2.441000000     1.196000000     0.493000000
O    -3.280000000    -3.790000000    -1.525000000
H    -3.192000000    -2.851000000    -1.358000000
H    -3.774000000    -3.842000000    -2.343000000
O     1.516000000     2.428000000     4.913000000
H     2.084000000     3.175000000     5.101000000
H     1.012000000     2.697000000     4.145000000
O     0.663000000    -3.779000000    -4.421000000
H     0.955000000    -4.355000000    -3.714000000
H     1.016000000    -4.179000000    -5.216000000
O    -1.680000000     0.991000000     5.616000000
H    -0.779000000     0.727000000     5.433000000
H    -2.187000000     0.638000000     4.885000000
O    -1.151000000    -3.411000000     2.392000000
H    -0.637000000    -3.825000000     3.086000000
H    -1.547000000    -2.647000000     2.810000000
O    -1.853000000    -5.729000000    -4.170000000
H    -1.461000000    -6.129000000    -3.394000000
H    -1.620000000    -4.803000000    -4.105000000
O    -0.264000000    -6.850000000    -1.755000000
H     0.630000000    -7.192000000    -1.760000000
H    -0.224000000    -6.086000000    -1.180000000
O     2.121000000     0.677000000     7.233000000
H     1.436000000     1.018000000     7.809000000
H     1.969000000     1.113000000     6.395000000
O    -3.670000000     5.478000000    -2.091000000
H    -4.033000000     5.019000000    -1.334000000
H    -4.143000000     5.117000000    -2.840000000
O     2.998000000     4.358000000    -3.283000000
H     3.696000000     4.574000000    -2.665000000
H     3.228000000     3.489000000    -3.611000000
O    -0.626000000     2.051000000     8.166000000
H    -0.995000000     1.815000000     7.315000000
H    -1.172000000     2.775000000     8.471000000
O    -6.505000000     1.758000000     3.570000000
H    -5.907000000     2.464000000     3.322000000
H    -5.935000000     1.006000000     3.727000000
O    -4.518000000     3.893000000     0.040000000
H    -4.250000000     3.709000000     0.941000000
H    -5.453000000     4.088000000     0.104000000
O    -0.627000000     3.323000000     3.202000000
H     0.010000000     3.378000000     2.489000000
H    -0.965000000     2.429000000     3.152000000
O     0.288000000    -0.956000000    -6.991000000
H    -0.252000000    -0.213000000    -7.263000000
H    -0.304000000    -1.508000000    -6.481000000
O     0.015000000     6.345000000    -1.009000000
H     0.520000000     6.183000000    -0.212000000
H    -0.872000000     6.526000000    -0.699000000
O     4.122000000    -0.913000000     2.371000000
H     3.808000000    -1.740000000     2.006000000
H     3.471000000    -0.267000000     2.094000000
O    -1.909000000    -2.729000000    -5.734000000
H    -1.195000000    -3.059000000    -5.190000000
H    -2.207000000    -1.938000000    -5.284000000
O     2.067000000    -5.623000000    -3.113000000
H     2.845000000    -5.557000000    -3.666000000
H     2.306000000    -6.259000000    -2.439000000
O     6.118000000     1.984000000    -1.878000000
H     6.217000000     2.793000000    -1.376000000
H     6.016000000     1.301000000    -1.215000000
O     1.012000000     2.825000000    -5.487000000
H     1.309000000     3.119000000    -4.625000000
H     1.611000000     2.115000000    -5.717000000
O     5.732000000    -2.537000000     3.725000000
H     5.118000000    -1.900000000     3.359000000
H     5.817000000    -3.206000000     3.045000000
O     2.501000000     0.652000000    -6.316000000
H     1.969000000    -0.110000000    -6.548000000
H     2.382000000     1.258000000    -7.048000000
O     0.936000000     3.715000000    -1.764000000
H     1.692000000     4.195000000    -2.102000000
H     0.251000000     4.378000000    -1.676000000
O    -3.945000000     3.172000000     2.777000000
H    -3.229000000     3.572000000     3.271000000
H    -3.692000000     2.253000000     2.692000000
O    -3.771000000     3.411000000    -4.888000000
H    -3.963000000     2.661000000    -4.324000000
H    -4.392000000     3.331000000    -5.612000000
O    -2.665000000    -0.886000000    -1.797000000
H    -3.344000000    -0.288000000    -1.483000000
H    -1.843000000    -0.480000000    -1.523000000
O    -4.383000000    -0.045000000     3.910000000
H    -3.508000000     0.195000000     3.604000000
H    -4.278000000    -0.925000000     4.271000000
O     3.889000000     1.712000000    -4.424000000
H     3.520000000     1.245000000    -5.173000000
H     4.153000000     1.020000000    -3.817000000
O    -1.003000000    -4.768000000    -0.047000000
H    -1.121000000    -4.146000000     0.671000000
H    -1.617000000    -4.476000000    -0.721000000
O    -4.128000000    -2.408000000     5.191000000
H    -4.200000000    -3.160000000     4.602000000
H    -3.562000000    -2.714000000     5.900000000
O    -3.997000000    -4.122000000     2.798000000
H    -3.055000000    -3.962000000     2.846000000
H    -4.146000000    -4.405000000     1.896000000
O     1.244000000    -5.283000000     1.670000000
H     0.584000000    -5.468000000     2.338000000
H     0.740000000    -4.988000000     0.911000000
O     3.769000000    -2.262000000    -5.005000000
H     4.178000000    -1.531000000    -4.541000000
H     2.829000000    -2.085000000    -4.949000000
O    -1.650000000     1.700000000    -4.975000000
H    -0.794000000     2.091000000    -5.146000000
H    -2.277000000     2.331000000    -5.328000000
O     5.210000000    -0.715000000    -3.295000000
H     6.120000000    -0.490000000    -3.490000000
H     5.248000000    -1.154000000    -2.446000000
O     1.400000000     3.701000000     1.089000000
H     1.910000000     4.502000000     0.968000000
H     1.037000000     3.514000000     0.223000000
O    -2.145000000     3.739000000     5.903000000
H    -2.178000000     2.873000000     5.498000000
H    -1.653000000     4.276000000     5.281000000
O    -0.424000000    -5.691000000     3.984000000
H    -0.129000000    -6.513000000     4.375000000
H     0.123000000    -5.021000000     4.393000000
O    -4.957000000     1.159000000    -0.890000000
H    -5.753000000     1.193000000    -0.359000000
H    -4.529000000     2.001000000    -0.735000000
O    -3.922000000     0.621000000     7.191000000
H    -3.378000000     0.488000000     6.415000000
H    -3.711000000    -0.119000000     7.761000000
O     5.996000000     0.385000000     0.473000000
H     6.047000000    -0.565000000     0.375000000
H     5.388000000     0.519000000     1.201000000
O    -1.184000000     5.878000000     4.357000000
H    -0.463000000     6.355000000     4.767000000
H    -0.774000000     5.398000000     3.637000000
O     0.630000000    -2.874000000     4.428000000
H     0.221000000    -2.011000000     4.373000000
H     1.188000000    -2.825000000     5.205000000
O    -2.668000000    -0.689000000    -4.450000000
H    -2.739000000    -0.625000000    -3.497000000
H    -2.132000000     0.063000000    -4.701000000
O     3.682000000    -3.682000000     5.292000000
H     4.064000000    -3.055000000     4.679000000
H     3.263000000    -3.140000000     5.960000000
