161
-3059.17469
C    -0.603000000    -0.559000000     1.210000000
H    -0.992000000    -1.044000000     2.102000000
C     0.169000000    -1.240000000     0.307000000
H     0.518000000    -2.236000000     0.569000000
C     0.649000000    -0.634000000    -0.915000000
C     1.661000000    -1.341000000    -1.794000000
H     1.254000000    -2.195000000    -2.340000000
H     2.194000000    -0.656000000    -2.458000000
H     2.434000000    -1.797000000    -1.172000000
C     0.285000000     0.659000000    -1.067000000
H     0.506000000     1.148000000    -2.012000000
C    -0.422000000     1.451000000    -0.150000000
H    -0.717000000     2.481000000    -0.331000000
C    -0.893000000     0.829000000     0.997000000
C    -1.723000000     1.539000000     2.048000000
O    -2.388000000     2.536000000     1.874000000
O    -1.931000000     1.053000000     3.134000000
O     3.189000000    -5.273000000    -1.314000000
H     2.299000000    -4.938000000    -1.205000000
H     3.156000000    -6.160000000    -0.956000000
O     1.989000000     2.891000000     2.657000000
H     1.902000000     3.605000000     2.026000000
H     2.331000000     2.159000000     2.144000000
O    -3.304000000    -1.570000000    -4.157000000
H    -4.189000000    -1.936000000    -4.170000000
H    -3.201000000    -1.222000000    -3.271000000
O     6.730000000    -0.691000000    -1.913000000
H     7.316000000    -1.403000000    -1.655000000
H     6.030000000    -1.123000000    -2.403000000
O    -2.101000000     2.637000000     6.219000000
H    -1.153000000     2.735000000     6.127000000
H    -2.212000000     1.802000000     6.673000000
O    -1.129000000    -4.846000000    -3.936000000
H    -0.389000000    -5.437000000    -3.800000000
H    -1.593000000    -5.212000000    -4.689000000
O    -4.476000000     2.516000000     3.948000000
H    -4.180000000     2.549000000     4.857000000
H    -3.712000000     2.212000000     3.458000000
O    -4.679000000    -1.982000000     0.604000000
H    -5.581000000    -2.242000000     0.418000000
H    -4.760000000    -1.278000000     1.248000000
O     0.169000000    -5.430000000    -0.688000000
H     0.365000000    -6.025000000    -1.412000000
H    -0.772000000    -5.268000000    -0.758000000
O     0.327000000     3.398000000    -5.280000000
H     0.278000000     2.504000000    -4.941000000
H    -0.494000000     3.519000000    -5.758000000
O     3.421000000     2.679000000    -1.884000000
H     3.517000000     1.915000000    -1.315000000
H     3.336000000     3.418000000    -1.281000000
O     3.448000000    -4.194000000    -3.750000000
H     3.926000000    -3.403000000    -3.500000000
H     3.407000000    -4.713000000    -2.947000000
O    -5.481000000     4.884000000     3.140000000
H    -4.771000000     5.101000000     2.536000000
H    -5.248000000     4.022000000     3.484000000
O    -2.195000000     4.612000000     3.554000000
H    -2.238000000     3.856000000     4.140000000
H    -2.096000000     4.232000000     2.681000000
O     2.100000000    -1.313000000    -5.137000000
H     2.837000000    -1.718000000    -5.595000000
H     1.824000000    -1.969000000    -4.498000000
O     1.461000000    -5.101000000     4.036000000
H     1.209000000    -6.018000000     3.933000000
H     1.234000000    -4.695000000     3.199000000
O     3.097000000     0.532000000     0.468000000
H     3.048000000    -0.168000000     1.119000000
H     2.259000000     0.491000000     0.008000000
O     0.876000000    -6.630000000    -3.113000000
H     1.815000000    -6.674000000    -3.295000000
H     0.558000000    -7.518000000    -3.274000000
O    -2.595000000     5.735000000     0.089000000
H    -1.801000000     5.216000000     0.219000000
H    -2.278000000     6.628000000    -0.044000000
O     0.414000000     0.708000000    -4.636000000
H    -0.055000000    -0.125000000    -4.584000000
H     1.330000000     0.459000000    -4.757000000
O     6.172000000    -1.776000000     1.855000000
H     6.290000000    -2.667000000     1.525000000
H     5.223000000    -1.659000000     1.895000000
O    -0.052000000     5.048000000    -0.096000000
H     0.224000000     5.117000000    -1.010000000
H     0.767000000     4.999000000     0.397000000
O    -4.201000000     2.963000000     0.095000000
H    -3.711000000     3.755000000    -0.126000000
H    -3.667000000     2.530000000     0.762000000
O    -2.601000000    -1.022000000    -1.538000000
H    -3.321000000    -1.477000000    -1.101000000
H    -1.847000000    -1.165000000    -0.967000000
O    -3.078000000    -0.999000000     4.710000000
H    -2.649000000    -0.407000000     4.092000000
H    -3.936000000    -1.170000000     4.322000000
O     4.221000000     1.119000000    -4.340000000
H     3.568000000     1.549000000    -3.788000000
H     3.832000000     1.116000000    -5.214000000
O    -6.810000000     2.901000000    -0.594000000
H    -6.685000000     3.354000000    -1.427000000
H    -5.934000000     2.860000000    -0.210000000
O    -2.374000000    -3.920000000     0.976000000
H    -2.951000000    -3.161000000     1.060000000
H    -2.693000000    -4.379000000     0.199000000
O    -2.175000000    -6.136000000     2.777000000
H    -2.080000000    -5.430000000     2.137000000
H    -3.043000000    -6.000000000     3.156000000
O    -4.008000000    -4.055000000     3.429000000
H    -4.426000000    -3.339000000     3.907000000
H    -3.075000000    -3.840000000     3.443000000
O    -2.741000000    -4.342000000    -1.802000000
H    -2.113000000    -4.325000000    -2.524000000
H    -3.266000000    -5.127000000    -1.961000000
O     0.307000000    -4.278000000     1.888000000
H    -0.600000000    -3.977000000     1.828000000
H     0.464000000    -4.733000000     1.061000000
O    -4.997000000     0.120000000     2.293000000
H    -4.638000000     0.971000000     2.545000000
H    -5.790000000     0.029000000     2.821000000
O     6.076000000    -4.661000000    -1.094000000
H     6.128000000    -4.286000000    -0.215000000
H     5.216000000    -5.080000000    -1.125000000
O    -3.508000000     1.525000000    -2.275000000
H    -3.240000000     0.670000000    -1.940000000
H    -4.096000000     1.872000000    -1.604000000
O     2.983000000    -1.674000000     2.363000000
H     2.160000000    -2.111000000     2.147000000
H     2.986000000    -1.628000000     3.319000000
O     1.112000000     5.979000000    -2.443000000
H     1.210000000     5.426000000    -3.217000000
H     1.798000000     6.640000000    -2.532000000
O     4.564000000    -1.643000000    -3.457000000
H     5.101000000    -1.364000000    -4.198000000
H     3.873000000    -0.983000000    -3.400000000
O     2.302000000     5.066000000     0.956000000
H     3.080000000     5.214000000     0.418000000
H     2.195000000     5.878000000     1.451000000
O    -2.696000000     0.126000000     7.328000000
H    -2.355000000    -0.476000000     6.667000000
H    -3.471000000    -0.315000000     7.676000000
O     0.794000000    -2.978000000     5.772000000
H     1.119000000    -3.651000000     5.173000000
H     1.311000000    -2.201000000     5.563000000
O    -3.461000000     2.619000000    -4.722000000
H    -3.203000000     2.137000000    -3.937000000
H    -3.131000000     3.506000000    -4.578000000
O    -0.680000000    -2.029000000    -4.568000000
H    -0.522000000    -2.880000000    -4.157000000
H    -1.611000000    -1.862000000    -4.420000000
O     5.652000000     1.208000000    -0.166000000
H     6.046000000     0.596000000    -0.787000000
H     4.737000000     0.933000000    -0.106000000
O     0.147000000     1.500000000     4.666000000
H     0.680000000     2.022000000     4.066000000
H    -0.686000000     1.384000000     4.209000000
O    -1.642000000    -3.183000000     4.152000000
H    -0.815000000    -3.206000000     4.633000000
H    -2.141000000    -2.479000000     4.566000000
O    -5.354000000     5.924000000     0.515000000
H    -5.396000000     4.969000000     0.559000000
H    -4.545000000     6.107000000     0.036000000
O     1.924000000    -0.709000000     5.008000000
H     1.430000000     0.082000000     4.795000000
H     2.459000000    -0.462000000     5.763000000
