161
-3017.18547
C    -0.503000000    -0.567000000     1.252000000
H    -0.941000000    -1.052000000     2.121000000
C    -0.100000000    -1.300000000     0.157000000
H     0.010000000    -2.380000000     0.208000000
C     0.329000000    -0.637000000    -0.984000000
C     0.858000000    -1.390000000    -2.186000000
H     1.308000000    -0.696000000    -2.899000000
H     1.564000000    -2.215000000    -2.070000000
H     0.034000000    -1.908000000    -2.681000000
C     0.322000000     0.778000000    -1.044000000
H     0.630000000     1.284000000    -1.955000000
C    -0.147000000     1.445000000     0.091000000
H    -0.057000000     2.528000000     0.067000000
C    -0.475000000     0.787000000     1.281000000
C    -0.880000000     1.537000000     2.524000000
O    -0.864000000     2.778000000     2.537000000
O    -1.088000000     1.004000000     3.587000000
O     3.508000000    -3.291000000     0.101000000
H     4.024000000    -2.501000000     0.259000000
H     2.656000000    -2.967000000    -0.189000000
O     1.721000000     3.578000000     2.536000000
H     0.809000000     3.506000000     2.817000000
H     1.772000000     3.037000000     1.748000000
O     3.486000000     3.296000000     4.914000000
H     3.238000000     4.203000000     4.734000000
H     4.099000000     3.072000000     4.214000000
O    -1.672000000    -0.829000000    -4.212000000
H    -2.515000000    -1.005000000    -4.628000000
H    -1.895000000    -0.577000000    -3.316000000
O     6.821000000    -1.566000000    -0.578000000
H     6.776000000    -2.451000000    -0.216000000
H     6.159000000    -1.556000000    -1.270000000
O    -1.966000000     2.022000000     7.127000000
H    -1.903000000     1.378000000     7.832000000
H    -1.910000000     1.503000000     6.324000000
O    -5.894000000     2.131000000     2.248000000
H    -5.024000000     1.947000000     2.601000000
H    -5.758000000     2.211000000     1.304000000
O     2.520000000    -3.729000000    -4.800000000
H     2.045000000    -3.551000000    -3.988000000
H     3.380000000    -4.034000000    -4.513000000
O    -3.611000000     1.868000000     3.842000000
H    -3.505000000     2.788000000     3.600000000
H    -2.756000000     1.474000000     3.670000000
O    -3.970000000     0.158000000     0.918000000
H    -4.726000000    -0.370000000     0.663000000
H    -3.866000000    -0.009000000     1.855000000
O     1.382000000    -4.677000000    -2.690000000
H     1.944000000    -5.452000000    -2.679000000
H     0.523000000    -5.000000000    -2.421000000
O     0.771000000     3.674000000     6.528000000
H     1.610000000     3.288000000     6.277000000
H     0.217000000     2.925000000     6.743000000
O     1.240000000     0.625000000     7.541000000
H     1.056000000    -0.279000000     7.795000000
H     1.183000000     0.621000000     6.585000000
O    -5.041000000     4.942000000     3.930000000
H    -5.694000000     5.427000000     3.425000000
H    -5.551000000     4.307000000     4.433000000
O    -2.196000000     4.452000000     4.855000000
H    -1.896000000     3.796000000     5.485000000
H    -1.391000000     4.834000000     4.505000000
O     3.456000000     0.790000000    -2.204000000
H     3.633000000     0.086000000    -1.580000000
H     3.375000000     1.575000000    -1.663000000
O     2.796000000     6.046000000     0.164000000
H     2.337000000     5.706000000     0.932000000
H     3.289000000     6.798000000     0.493000000
O     3.437000000    -6.499000000    -1.816000000
H     4.297000000    -6.093000000    -1.706000000
H     3.606000000    -7.276000000    -2.348000000
O    -2.198000000     7.624000000    -0.118000000
H    -2.587000000     8.072000000    -0.868000000
H    -2.568000000     6.742000000    -0.147000000
O     0.330000000    -1.814000000     7.923000000
H    -0.430000000    -1.921000000     7.351000000
H     0.834000000    -2.619000000     7.804000000
O     2.835000000     0.078000000    -5.541000000
H     1.995000000    -0.303000000    -5.288000000
H     3.203000000    -0.546000000    -6.167000000
O     0.318000000     5.744000000    -2.598000000
H     0.536000000     5.391000000    -3.461000000
H     0.587000000     5.060000000    -1.985000000
O     0.029000000    -1.655000000    -7.918000000
H     0.386000000    -1.830000000    -7.047000000
H    -0.884000000    -1.937000000    -7.863000000
O    -2.632000000     4.300000000     1.601000000
H    -3.038000000     4.832000000     2.286000000
H    -1.909000000     3.854000000     2.042000000
O    -2.645000000    -0.471000000    -1.587000000
H    -3.393000000    -0.304000000    -1.014000000
H    -1.883000000    -0.409000000    -1.011000000
O    -0.512000000    -1.335000000     4.696000000
H     0.441000000    -1.248000000     4.676000000
H    -0.830000000    -0.606000000     4.164000000
O     3.628000000     3.804000000    -5.178000000
H     3.553000000     4.240000000    -4.330000000
H     4.429000000     3.283000000    -5.109000000
O     5.104000000     0.881000000    -4.275000000
H     4.700000000     1.125000000    -3.442000000
H     4.366000000     0.697000000    -4.855000000
O    -4.313000000     3.777000000    -0.353000000
H    -3.940000000     3.140000000    -0.962000000
H    -3.579000000     4.032000000     0.206000000
O    -2.490000000    -3.373000000     0.727000000
H    -3.035000000    -3.477000000    -0.054000000
H    -2.879000000    -2.633000000     1.192000000
O    -1.058000000    -5.934000000    -2.662000000
H    -0.536000000    -6.281000000    -3.386000000
H    -1.944000000    -5.866000000    -3.017000000
O    -0.843000000    -4.872000000     2.343000000
H    -1.350000000    -4.425000000     1.665000000
H    -0.232000000    -5.427000000     1.858000000
O     1.399000000    -6.250000000     0.759000000
H     1.216000000    -7.155000000     1.013000000
H     1.977000000    -6.326000000     0.000000000
O    -3.913000000    -1.406000000     3.615000000
H    -3.537000000    -0.766000000     4.219000000
H    -4.804000000    -1.546000000     3.938000000
O     5.763000000    -4.617000000    -1.216000000
H     5.902000000    -5.418000000    -0.710000000
H     4.891000000    -4.320000000    -0.958000000
O    -3.107000000     2.243000000    -2.031000000
H    -2.743000000     1.422000000    -1.701000000
H    -2.622000000     2.413000000    -2.838000000
O     4.646000000    -0.954000000     1.313000000
H     5.588000000    -0.945000000     1.481000000
H     4.248000000    -1.011000000     2.181000000
O     5.183000000    -1.522000000    -3.176000000
H     4.519000000    -0.887000000    -3.442000000
H     5.434000000    -1.961000000    -3.989000000
O     3.804000000     3.065000000    -0.445000000
H     4.649000000     2.763000000    -0.776000000
H     3.873000000     4.020000000    -0.447000000
O    -2.952000000    -0.656000000     6.550000000
H    -2.118000000    -0.785000000     6.099000000
H    -2.950000000    -1.308000000     7.251000000
O     2.822000000    -3.637000000     3.278000000
H     2.545000000    -3.591000000     2.363000000
H     3.039000000    -2.733000000     3.508000000
O     0.880000000     4.234000000    -4.849000000
H     0.660000000     4.434000000    -5.759000000
H     1.793000000     3.948000000    -4.880000000
O    -0.029000000    -5.766000000    -5.316000000
H    -0.339000000    -6.221000000    -6.099000000
H    -0.273000000    -4.851000000    -5.459000000
O     0.635000000    -1.611000000    -5.321000000
H     0.965000000    -2.161000000    -4.611000000
H    -0.129000000    -1.171000000    -4.948000000
O     1.250000000     1.078000000     4.671000000
H     1.627000000     1.866000000     4.280000000
H     0.341000000     1.074000000     4.373000000
O    -1.288000000     2.469000000    -4.171000000
H    -0.600000000     3.113000000    -4.340000000
H    -1.163000000     1.803000000    -4.846000000
O    -2.557000000    -3.998000000     4.424000000
H    -2.055000000    -4.320000000     3.675000000
H    -2.436000000    -3.048000000     4.402000000
O     2.957000000    -0.922000000     3.767000000
H     2.412000000    -0.406000000     3.173000000
H     3.318000000    -0.280000000     4.379000000
