161
-3056.53107
C     0.059000000    -0.752000000     1.274000000
H     0.022000000    -1.318000000     2.202000000
C     0.120000000    -1.345000000     0.025000000
H     0.137000000    -2.432000000     0.011000000
C     0.117000000    -0.611000000    -1.114000000
C    -0.035000000    -1.157000000    -2.444000000
H     0.519000000    -0.547000000    -3.159000000
H     0.325000000    -2.188000000    -2.415000000
H    -1.093000000    -1.179000000    -2.715000000
C    -0.017000000     0.841000000    -1.024000000
H    -0.156000000     1.420000000    -1.933000000
C    -0.003000000     1.469000000     0.201000000
H    -0.032000000     2.547000000     0.335000000
C     0.048000000     0.696000000     1.395000000
C    -0.009000000     1.313000000     2.734000000
O    -0.427000000     2.450000000     2.895000000
O     0.432000000     0.793000000     3.725000000
O     1.211000000    -0.941000000     7.977000000
H     0.592000000    -1.197000000     8.661000000
H     0.682000000    -0.454000000     7.345000000
O     2.060000000     4.332000000     2.071000000
H     1.660000000     3.593000000     2.529000000
H     1.348000000     4.962000000     1.963000000
O    -1.534000000    -4.822000000    -1.784000000
H    -1.896000000    -5.330000000    -1.057000000
H    -2.299000000    -4.546000000    -2.288000000
O     2.643000000     2.823000000    -5.426000000
H     1.707000000     2.675000000    -5.557000000
H     3.025000000     1.945000000    -5.414000000
O    -1.123000000     4.599000000     4.403000000
H    -0.318000000     5.085000000     4.582000000
H    -0.824000000     3.736000000     4.119000000
O    -3.153000000    -0.097000000    -0.252000000
H    -3.881000000     0.244000000     0.268000000
H    -2.369000000     0.174000000     0.226000000
O    -0.085000000     5.724000000     1.716000000
H    -0.939000000     5.295000000     1.659000000
H    -0.169000000     6.329000000     2.454000000
O     3.658000000     0.527000000    -5.208000000
H     3.686000000    -0.103000000    -5.928000000
H     4.576000000     0.740000000    -5.040000000
O    -3.258000000    -3.333000000     0.104000000
H    -2.712000000    -3.787000000     0.745000000
H    -2.776000000    -2.530000000    -0.095000000
O    -0.070000000     3.078000000     7.531000000
H     0.804000000     2.827000000     7.231000000
H    -0.322000000     3.801000000     6.956000000
O     2.856000000     1.107000000    -0.396000000
H     3.179000000     0.641000000    -1.167000000
H     2.183000000     0.531000000    -0.032000000
O    -0.617000000    -7.642000000    -2.827000000
H    -0.778000000    -6.752000000    -3.140000000
H    -0.556000000    -7.554000000    -1.876000000
O     3.597000000    -2.020000000     5.074000000
H     4.300000000    -1.371000000     5.066000000
H     4.040000000    -2.852000000     5.239000000
O     0.996000000    -4.589000000     4.466000000
H     0.181000000    -4.573000000     4.968000000
H     1.235000000    -3.668000000     4.366000000
O    -1.787000000    -0.013000000     5.024000000
H    -2.437000000     0.588000000     4.661000000
H    -0.944000000     0.376000000     4.791000000
O    -4.314000000    -2.544000000    -5.529000000
H    -4.478000000    -2.366000000    -4.603000000
H    -3.930000000    -1.734000000    -5.865000000
O    -0.183000000     2.314000000    -5.498000000
H    -0.793000000     2.301000000    -4.760000000
H    -0.675000000     1.925000000    -6.222000000
O    -2.504000000     3.761000000    -1.182000000
H    -2.716000000     3.807000000    -0.249000000
H    -1.757000000     4.350000000    -1.287000000
O    -4.722000000     1.589000000     1.302000000
H    -5.070000000     2.320000000     0.791000000
H    -5.414000000     0.928000000     1.277000000
O     3.629000000     0.857000000     7.624000000
H     3.095000000     0.089000000     7.828000000
H     3.128000000     1.326000000     6.957000000
O    -3.745000000     4.540000000     3.867000000
H    -2.811000000     4.474000000     4.063000000
H    -4.132000000     4.907000000     4.662000000
O    -3.986000000     1.611000000     4.266000000
H    -4.212000000     2.521000000     4.457000000
H    -3.802000000     1.601000000     3.327000000
O    -4.902000000     4.075000000    -3.024000000
H    -4.062000000     4.105000000    -2.567000000
H    -5.555000000     4.160000000    -2.329000000
O     3.477000000    -5.042000000    -1.063000000
H     2.708000000    -4.831000000    -1.592000000
H     3.635000000    -4.252000000    -0.545000000
O    -2.306000000     3.836000000     1.462000000
H    -1.637000000     3.418000000     2.005000000
H    -2.952000000     4.162000000     2.088000000
O     1.484000000    -1.981000000    -7.888000000
H     1.149000000    -1.941000000    -8.783000000
H     0.812000000    -1.548000000    -7.361000000
O     1.869000000     2.054000000     5.739000000
H     2.414000000     2.765000000     5.402000000
H     1.454000000     1.682000000     4.960000000
O     0.840000000    -1.758000000     4.685000000
H     0.602000000    -0.897000000     4.342000000
H     1.791000000    -1.719000000     4.791000000
O     4.276000000     2.848000000     1.200000000
H     3.562000000     3.400000000     1.517000000
H     3.838000000     2.119000000     0.761000000
O    -1.071000000    -1.110000000    -6.353000000
H    -0.814000000    -1.681000000    -5.630000000
H    -1.452000000    -1.702000000    -7.002000000
O    -4.034000000     0.934000000    -2.546000000
H    -4.638000000     1.585000000    -2.187000000
H    -3.627000000     0.536000000    -1.776000000
O    -2.817000000    -5.094000000    -4.481000000
H    -2.514000000    -5.125000000    -5.389000000
H    -3.340000000    -4.294000000    -4.431000000
O     0.683000000    -3.385000000    -5.064000000
H     0.471000000    -4.067000000    -5.702000000
H     1.241000000    -2.773000000    -5.544000000
O     1.097000000    -4.847000000    -2.490000000
H     0.226000000    -4.809000000    -2.095000000
H     1.029000000    -4.303000000    -3.274000000
O    -5.093000000    -1.628000000    -3.273000000
H    -4.799000000    -0.745000000    -3.049000000
H    -4.873000000    -2.155000000    -2.505000000
O     4.158000000    -4.235000000     1.552000000
H     3.317000000    -4.690000000     1.528000000
H     3.971000000    -3.367000000     1.193000000
O     3.466000000    -0.507000000    -2.374000000
H     3.257000000     0.092000000    -3.091000000
H     4.094000000    -1.123000000    -2.751000000
O    -0.166000000     5.131000000    -1.588000000
H     0.147000000     4.845000000    -2.447000000
H     0.594000000     5.039000000    -1.014000000
O     1.684000000    -5.596000000     2.188000000
H     1.592000000    -5.036000000     2.958000000
H     0.897000000    -6.141000000     2.193000000
O     2.044000000     3.344000000    -1.920000000
H     2.337000000     2.562000000    -1.451000000
H     2.217000000     3.148000000    -2.841000000
O     1.503000000     5.729000000     4.476000000
H     2.162000000     5.035000000     4.511000000
H     1.826000000     6.397000000     5.081000000
O    -2.193000000    -6.744000000     0.375000000
H    -1.776000000    -6.112000000     0.960000000
H    -1.551000000    -7.449000000     0.289000000
O    -0.173000000     5.114000000    -4.537000000
H    -0.904000000     5.265000000    -5.136000000
H    -0.085000000     4.162000000    -4.502000000
O    -1.910000000    -1.237000000     7.306000000
H    -2.058000000    -0.513000000     7.914000000
H    -1.850000000    -0.820000000     6.447000000
O    -1.521000000    -2.728000000     3.746000000
H    -2.214000000    -2.079000000     3.869000000
H    -0.782000000    -2.387000000     4.250000000
O    -2.007000000     2.444000000    -3.565000000
H    -2.012000000     2.866000000    -2.706000000
H    -2.724000000     1.812000000    -3.526000000
O    -1.685000000    -4.718000000     2.069000000
H    -1.424000000    -5.487000000     2.576000000
H    -1.512000000    -3.978000000     2.651000000
O     3.682000000    -1.924000000     0.054000000
H     3.447000000    -1.706000000    -0.848000000
H     4.439000000    -1.371000000     0.245000000
