161
-3046.37006
C    -1.328000000    -0.492000000     0.572000000
H    -2.238000000    -1.042000000     0.798000000
C    -0.917000000    -0.442000000    -0.771000000
H    -1.547000000    -0.975000000    -1.479000000
C     0.243000000     0.274000000    -1.240000000
C     0.597000000     0.422000000    -2.674000000
H     0.272000000     1.395000000    -3.048000000
H     1.688000000     0.423000000    -2.729000000
H     0.197000000    -0.362000000    -3.319000000
C     1.177000000     0.536000000    -0.229000000
H     2.143000000     0.951000000    -0.507000000
C     0.893000000     0.283000000     1.119000000
H     1.656000000     0.475000000     1.869000000
C    -0.375000000    -0.175000000     1.525000000
C    -0.739000000    -0.355000000     2.957000000
O    -0.056000000     0.124000000     3.824000000
O    -1.661000000    -1.040000000     3.335000000
O     5.627000000     2.606000000     1.727000000
H     5.576000000     2.322000000     2.640000000
H     6.160000000     3.400000000     1.753000000
O    -4.617000000    -5.036000000    -1.927000000
H    -4.053000000    -4.316000000    -1.644000000
H    -5.391000000    -4.606000000    -2.290000000
O    -2.023000000    -0.572000000    -5.188000000
H    -2.475000000     0.035000000    -4.602000000
H    -2.309000000    -1.440000000    -4.901000000
O     5.095000000     1.524000000     4.406000000
H     5.129000000     0.684000000     4.862000000
H     4.160000000     1.713000000     4.320000000
O     4.509000000     0.006000000    -4.468000000
H     4.250000000    -0.259000000    -3.586000000
H     4.065000000    -0.616000000    -5.045000000
O    -5.199000000    -0.113000000     3.700000000
H    -4.666000000    -0.718000000     3.184000000
H    -5.384000000    -0.588000000     4.510000000
O     0.316000000     3.940000000    -5.063000000
H     1.102000000     3.394000000    -5.073000000
H     0.080000000     4.003000000    -4.137000000
O    -0.486000000     4.024000000    -2.578000000
H    -0.687000000     3.524000000    -1.787000000
H    -1.300000000     4.484000000    -2.784000000
O    -2.343000000    -3.405000000    -1.676000000
H    -1.732000000    -3.094000000    -1.008000000
H    -1.783000000    -3.717000000    -2.386000000
O     0.324000000    -1.090000000    -6.613000000
H    -0.450000000    -0.823000000    -6.119000000
H     0.052000000    -1.884000000    -7.073000000
O    -4.227000000     0.680000000     7.468000000
H    -3.989000000     0.063000000     8.160000000
H    -3.556000000     0.557000000     6.796000000
O     3.652000000    -1.324000000    -2.264000000
H     2.767000000    -1.685000000    -2.229000000
H     3.815000000    -1.004000000    -1.376000000
O    -5.734000000     0.028000000    -2.359000000
H    -5.913000000     0.527000000    -1.562000000
H    -4.985000000     0.472000000    -2.756000000
O    -1.305000000    -3.787000000     3.439000000
H    -1.442000000    -2.852000000     3.591000000
H    -0.406000000    -3.848000000     3.117000000
O     1.867000000    -1.608000000     6.860000000
H     2.160000000    -1.157000000     7.651000000
H     0.988000000    -1.264000000     6.699000000
O    -3.535000000     1.592000000    -2.854000000
H    -4.160000000     2.316000000    -2.897000000
H    -2.676000000     2.015000000    -2.874000000
O    -3.482000000     3.084000000    -6.186000000
H    -3.126000000     2.991000000    -5.302000000
H    -4.431000000     3.072000000    -6.065000000
O     6.001000000     3.230000000    -3.191000000
H     5.185000000     3.682000000    -3.402000000
H     5.749000000     2.569000000    -2.546000000
O    -5.866000000     1.532000000     0.094000000
H    -5.000000000     1.939000000     0.110000000
H    -6.346000000     1.961000000     0.802000000
O    -0.800000000    -0.838000000     6.057000000
H    -1.537000000    -1.447000000     6.007000000
H    -0.607000000    -0.620000000     5.145000000
O     2.272000000     3.954000000    -1.786000000
H     2.432000000     3.042000000    -1.541000000
H     1.351000000     3.975000000    -2.046000000
O    -0.337000000     4.515000000     2.570000000
H     0.427000000     5.060000000     2.762000000
H    -1.075000000     5.000000000     2.940000000
O    -1.104000000     1.091000000     7.855000000
H    -1.060000000     1.678000000     7.100000000
H    -0.983000000     0.216000000     7.486000000
O    -2.428000000    -6.139000000     4.032000000
H    -2.044000000    -5.262000000     4.044000000
H    -2.742000000    -6.250000000     3.134000000
O     4.738000000    -3.628000000     2.478000000
H     4.702000000    -2.671000000     2.472000000
H     3.900000000    -3.897000000     2.853000000
O     2.829000000     3.295000000     3.418000000
H     2.499000000     4.170000000     3.620000000
H     3.020000000     3.321000000     2.481000000
O     4.584000000    -0.992000000     2.598000000
H     4.979000000    -0.901000000     3.465000000
H     3.641000000    -0.975000000     2.761000000
O     4.701000000     2.266000000    -1.085000000
H     4.966000000     2.523000000    -0.202000000
H     4.686000000     1.309000000    -1.061000000
O    -0.989000000     3.237000000     0.173000000
H    -0.561000000     3.896000000     0.719000000
H    -1.112000000     2.487000000     0.755000000
O    -1.113000000     2.807000000     5.563000000
H    -0.410000000     2.719000000     4.919000000
H    -1.702000000     2.076000000     5.376000000
O    -3.317000000    -3.001000000    -4.339000000
H    -3.677000000    -3.887000000    -4.377000000
H    -3.236000000    -2.815000000    -3.403000000
O    -3.842000000    -1.986000000     2.510000000
H    -3.015000000    -1.703000000     2.899000000
H    -3.851000000    -2.936000000     2.631000000
O    -5.604000000    -2.781000000     0.337000000
H    -6.206000000    -2.444000000    -0.326000000
H    -4.915000000    -2.118000000     0.394000000
O    -2.803000000     1.014000000     4.682000000
H    -3.492000000     1.032000000     4.018000000
H    -2.393000000     0.155000000     4.578000000
O     2.843000000    -1.762000000    -5.762000000
H     1.961000000    -1.591000000    -6.091000000
H     2.869000000    -2.709000000    -5.625000000
O     1.255000000    -3.294000000     2.279000000
H     1.516000000    -2.505000000     2.753000000
H     1.655000000    -4.012000000     2.770000000
O    -3.803000000     3.301000000     0.249000000
H    -4.237000000     3.866000000     0.888000000
H    -2.869000000     3.464000000     0.380000000
O     2.278000000     2.172000000    -5.318000000
H     1.741000000     1.725000000    -5.973000000
H     2.722000000     1.466000000    -4.849000000
O     1.666000000     1.537000000     5.401000000
H     1.892000000     2.135000000     4.689000000
H     1.018000000     0.944000000     5.018000000
O     2.335000000     1.973000000     8.052000000
H     2.041000000     1.853000000     7.149000000
H     2.550000000     2.903000000     8.113000000
O     1.331000000    -2.853000000    -2.265000000
H     0.984000000    -2.947000000    -1.378000000
H     0.705000000    -3.321000000    -2.818000000
O     5.163000000    -0.310000000    -0.036000000
H     4.981000000    -0.451000000     0.893000000
H     6.109000000    -0.165000000    -0.075000000
O     3.660000000     4.047000000    -4.181000000
H     3.227000000     4.248000000    -3.351000000
H     3.004000000     3.563000000    -4.682000000
O    -0.662000000    -4.524000000    -3.672000000
H    -0.454000000    -5.365000000    -3.265000000
H    -0.455000000    -4.649000000    -4.598000000
O     2.136000000    -1.263000000     3.761000000
H     2.360000000    -1.423000000     4.678000000
H     1.334000000    -0.741000000     3.799000000
O     3.913000000    -4.484000000    -2.124000000
H     4.447000000    -4.258000000    -1.361000000
H     3.268000000    -3.780000000    -2.181000000
O     0.129000000    -4.059000000    -0.091000000
H     0.263000000    -5.006000000    -0.131000000
H     0.583000000    -3.786000000     0.706000000
O    -2.965000000    -2.572000000     6.391000000
H    -2.730000000    -3.358000000     6.884000000
H    -3.725000000    -2.833000000     5.871000000
