161
-3026.76112
C     0.111000000    -1.193000000    -0.816000000
H     0.274000000    -2.008000000    -1.517000000
C     0.059000000     0.048000000    -1.296000000
H     0.203000000     0.152000000    -2.369000000
C    -0.138000000     1.150000000    -0.460000000
C     0.100000000     2.559000000    -0.963000000
H     0.131000000     3.309000000    -0.170000000
H     0.959000000     2.586000000    -1.637000000
H    -0.766000000     2.821000000    -1.574000000
C    -0.477000000     0.845000000     0.846000000
H    -0.588000000     1.670000000     1.546000000
C    -0.350000000    -0.436000000     1.414000000
H    -0.395000000    -0.547000000     2.495000000
C     0.024000000    -1.465000000     0.558000000
C     0.225000000    -2.805000000     1.141000000
O     0.178000000    -2.938000000     2.345000000
O     0.445000000    -3.742000000     0.462000000
O     1.386000000     1.965000000     5.758000000
H     1.955000000     2.589000000     5.307000000
H     0.584000000     1.952000000     5.236000000
O     3.478000000     4.761000000    -1.044000000
H     3.341000000     4.208000000    -1.813000000
H     3.709000000     5.618000000    -1.403000000
O    -1.714000000    -4.054000000    -0.874000000
H    -1.759000000    -5.010000000    -0.887000000
H    -0.926000000    -3.859000000    -0.367000000
O    -0.594000000     3.839000000    -4.191000000
H     0.024000000     3.841000000    -4.921000000
H    -0.730000000     4.765000000    -3.990000000
O     0.645000000    -4.839000000    -2.678000000
H     0.290000000    -5.727000000    -2.650000000
H    -0.031000000    -4.298000000    -2.269000000
O     3.392000000    -1.223000000     4.212000000
H     3.079000000    -0.906000000     3.365000000
H     4.319000000    -0.986000000     4.228000000
O    -2.531000000     6.248000000    -3.108000000
H    -2.244000000     7.092000000    -2.759000000
H    -2.905000000     6.457000000    -3.964000000
O     3.955000000    -7.059000000    -0.146000000
H     3.376000000    -6.320000000     0.040000000
H     4.021000000    -7.077000000    -1.101000000
O    -0.692000000     0.608000000    -5.608000000
H    -0.763000000     0.985000000    -4.731000000
H     0.046000000     0.002000000    -5.550000000
O    -1.096000000    -4.364000000     4.262000000
H    -0.730000000    -3.896000000     3.512000000
H    -1.947000000    -4.678000000     3.958000000
O    -1.872000000    -3.710000000    -5.275000000
H    -2.219000000    -4.196000000    -6.023000000
H    -0.922000000    -3.737000000    -5.391000000
O     1.329000000    -6.449000000     3.435000000
H     0.644000000    -6.485000000     4.103000000
H     1.558000000    -5.522000000     3.376000000
O     1.177000000    -9.167000000    -0.529000000
H     1.170000000    -8.215000000    -0.433000000
H     0.859000000    -9.495000000     0.312000000
O    -1.058000000    -2.766000000     6.932000000
H    -1.252000000    -3.464000000     6.306000000
H    -0.753000000    -2.038000000     6.391000000
O    -1.792000000    -7.285000000     0.527000000
H    -2.625000000    -7.504000000     0.108000000
H    -1.182000000    -7.167000000    -0.201000000
O    -1.095000000     1.321000000     4.459000000
H    -0.766000000     0.438000000     4.290000000
H    -1.447000000     1.611000000     3.618000000
O     4.520000000    -2.157000000    -4.560000000
H     4.259000000    -1.693000000    -3.765000000
H     3.836000000    -2.815000000    -4.689000000
O     2.966000000    -0.183000000     1.829000000
H     3.072000000     0.758000000     1.691000000
H     2.780000000    -0.533000000     0.957000000
O    -3.635000000    -1.423000000    -5.568000000
H    -3.520000000    -0.881000000    -4.788000000
H    -2.889000000    -2.023000000    -5.555000000
O    -3.180000000    -5.691000000     2.431000000
H    -3.750000000    -6.374000000     2.784000000
H    -2.632000000    -6.144000000     1.791000000
O     1.364000000     6.174000000     0.387000000
H     2.113000000     5.603000000     0.216000000
H     1.478000000     6.453000000     1.295000000
O     1.303000000     8.321000000    -1.293000000
H     0.428000000     8.339000000    -1.681000000
H     1.362000000     7.462000000    -0.874000000
O     3.469000000     3.050000000    -3.382000000
H     3.986000000     3.698000000    -3.860000000
H     3.631000000     2.227000000    -3.843000000
O     0.859000000    -6.332000000     0.006000000
H     0.534000000    -5.432000000     0.010000000
H     0.746000000    -6.631000000     0.909000000
O    -3.347000000    -4.946000000    -3.031000000
H    -3.182000000    -4.475000000    -3.847000000
H    -2.925000000    -4.413000000    -2.357000000
O     4.202000000     1.232000000    -1.301000000
H     4.177000000     1.840000000    -2.040000000
H     3.584000000     1.598000000    -0.669000000
O    -4.003000000    -3.152000000     2.847000000
H    -3.857000000    -4.092000000     2.734000000
H    -4.642000000    -3.093000000     3.557000000
O     1.973000000    -3.787000000     3.964000000
H     1.256000000    -3.444000000     3.431000000
H     2.577000000    -3.050000000     4.056000000
O     4.674000000    -4.766000000     1.811000000
H     4.524000000    -5.425000000     2.488000000
H     5.527000000    -4.994000000     1.440000000
O    -1.398000000     5.560000000    -0.408000000
H    -0.443000000     5.607000000    -0.362000000
H    -1.606000000     5.786000000    -1.314000000
O    -3.411000000    -2.368000000     0.295000000
H    -2.671000000    -2.924000000     0.051000000
H    -3.620000000    -2.627000000     1.193000000
O     1.939000000     3.529000000    -5.743000000
H     2.378000000     3.557000000    -4.893000000
H     1.993000000     2.612000000    -6.010000000
O     2.391000000    -0.408000000     6.744000000
H     2.034000000     0.426000000     6.441000000
H     2.669000000    -0.855000000     5.945000000
O    -4.857000000     1.168000000     0.244000000
H    -5.449000000     0.530000000    -0.154000000
H    -4.004000000     0.979000000    -0.147000000
O    -1.211000000    -1.455000000     4.603000000
H    -2.106000000    -1.675000000     4.344000000
H    -0.659000000    -2.019000000     4.062000000
O    -3.342000000     7.370000000     0.439000000
H    -2.652000000     6.770000000     0.153000000
H    -4.007000000     7.314000000    -0.247000000
O     1.380000000     4.057000000     2.688000000
H     0.494000000     4.308000000     2.427000000
H     1.653000000     4.741000000     3.299000000
O     3.330000000    -1.333000000    -2.136000000
H     3.235000000    -2.025000000    -1.482000000
H     3.691000000    -0.592000000    -1.650000000
O    -2.218000000     2.739000000    -6.618000000
H    -1.841000000     1.929000000    -6.276000000
H    -2.456000000     3.240000000    -5.838000000
O    -3.200000000     3.343000000    -3.849000000
H    -3.569000000     4.080000000    -3.363000000
H    -2.253000000     3.449000000    -3.762000000
O    -4.156000000     0.668000000    -3.338000000
H    -4.031000000     1.616000000    -3.381000000
H    -3.714000000     0.405000000    -2.531000000
O    -1.074000000     4.729000000     2.330000000
H    -1.127000000     5.418000000     1.667000000
H    -1.927000000     4.747000000     2.763000000
O     1.473000000    -0.879000000    -4.687000000
H     2.010000000    -1.193000000    -3.959000000
H     1.819000000    -1.334000000    -5.454000000
O     3.151000000    -4.914000000    -4.308000000
H     3.798000000    -5.448000000    -3.847000000
H     2.436000000    -4.809000000    -3.679000000
O    -2.879000000     2.164000000     6.177000000
H    -2.344000000     1.782000000     5.480000000
H    -2.283000000     2.752000000     6.640000000
O     3.245000000    -3.426000000    -0.109000000
H     2.377000000    -3.651000000     0.226000000
H     3.850000000    -3.924000000     0.441000000
O    -2.907000000    -0.109000000    -1.036000000
H    -3.199000000    -0.923000000    -0.627000000
H    -1.956000000    -0.197000000    -1.091000000
O     3.246000000     2.511000000     1.439000000
H     4.111000000     2.803000000     1.725000000
H     2.638000000     3.130000000     1.844000000
