161
-3052.57968
C    -0.231000000     1.354000000     0.393000000
H    -0.286000000     2.432000000     0.516000000
C    -0.381000000     0.849000000    -0.899000000
H    -0.490000000     1.510000000    -1.755000000
C    -0.107000000    -0.502000000    -1.115000000
C     0.003000000    -0.990000000    -2.624000000
H    -0.857000000    -0.568000000    -3.146000000
H     0.933000000    -0.617000000    -3.058000000
H     0.066000000    -2.080000000    -2.599000000
C     0.062000000    -1.366000000     0.010000000
H     0.471000000    -2.369000000    -0.079000000
C     0.087000000    -0.818000000     1.338000000
H     0.252000000    -1.540000000     2.135000000
C     0.039000000     0.542000000     1.492000000
C     0.044000000     1.164000000     2.788000000
O     0.523000000     0.606000000     3.753000000
O    -0.133000000     2.398000000     2.858000000
O     2.273000000    -4.708000000    -2.588000000
H     2.793000000    -3.905000000    -2.550000000
H     2.563000000    -5.217000000    -1.831000000
O     3.810000000     3.209000000     2.500000000
H     4.191000000     3.174000000     1.623000000
H     3.202000000     3.947000000     2.467000000
O    -0.503000000     3.842000000     4.981000000
H    -0.500000000     3.323000000     5.786000000
H    -0.225000000     3.229000000     4.300000000
O     1.590000000     0.746000000    -6.067000000
H     2.536000000     0.662000000    -5.941000000
H     1.301000000     1.306000000    -5.347000000
O     1.230000000    -4.994000000     2.292000000
H     0.921000000    -4.790000000     3.175000000
H     0.470000000    -4.843000000     1.731000000
O     4.080000000    -2.846000000    -2.261000000
H     4.960000000    -3.160000000    -2.467000000
H     3.890000000    -2.201000000    -2.942000000
O    -3.426000000     0.839000000    -6.316000000
H    -2.785000000     0.161000000    -6.528000000
H    -3.146000000     1.176000000    -5.465000000
O    -3.966000000    -4.580000000     1.527000000
H    -3.541000000    -3.825000000     1.122000000
H    -3.277000000    -4.992000000     2.048000000
O    -0.273000000     6.353000000    -2.126000000
H    -0.696000000     5.604000000    -1.708000000
H     0.557000000     6.007000000    -2.455000000
O    -3.068000000     3.068000000    -2.990000000
H    -2.858000000     2.189000000    -2.675000000
H    -4.015000000     3.144000000    -2.873000000
O     1.255000000     2.787000000    -4.463000000
H     0.525000000     3.400000000    -4.373000000
H     1.750000000     2.884000000    -3.650000000
O    -3.093000000     0.573000000    -2.271000000
H    -3.761000000     0.060000000    -1.815000000
H    -3.154000000     0.289000000    -3.183000000
O    -2.779000000    -3.473000000     4.828000000
H    -2.901000000    -2.545000000     4.626000000
H    -2.231000000    -3.478000000     5.612000000
O     3.402000000     1.019000000     7.253000000
H     3.825000000     0.163000000     7.185000000
H     3.786000000     1.414000000     8.036000000
O    -3.885000000     5.202000000     2.699000000
H    -3.609000000     4.406000000     2.245000000
H    -3.694000000     5.030000000     3.621000000
O    -0.352000000    -3.240000000    -6.571000000
H    -0.354000000    -3.323000000    -5.617000000
H    -1.164000000    -3.662000000    -6.850000000
O    -1.051000000    -4.858000000     0.356000000
H    -1.742000000    -5.519000000     0.337000000
H    -1.128000000    -4.406000000    -0.485000000
O     2.231000000    -2.053000000     4.575000000
H     2.672000000    -1.568000000     5.272000000
H     2.014000000    -1.389000000     3.921000000
O     5.359000000     0.198000000     4.726000000
H     5.219000000     1.141000000     4.814000000
H     5.009000000    -0.016000000     3.862000000
O    -4.032000000     0.051000000     5.916000000
H    -3.664000000     0.268000000     6.772000000
H    -3.274000000    -0.188000000     5.383000000
O    -1.064000000     5.981000000     2.926000000
H    -2.004000000     6.156000000     2.964000000
H    -0.819000000     5.791000000     3.832000000
O     0.923000000     1.831000000     6.386000000
H     0.756000000     1.361000000     5.569000000
H     1.781000000     1.518000000     6.672000000
O     1.362000000     4.748000000     2.052000000
H     1.125000000     3.928000000     2.486000000
H     0.559000000     5.270000000     2.072000000
O    -2.975000000    -2.112000000    -0.247000000
H    -3.411000000    -2.601000000    -0.945000000
H    -2.103000000    -1.924000000    -0.594000000
O    -4.220000000    -2.212000000    -3.546000000
H    -4.200000000    -2.718000000    -4.358000000
H    -4.738000000    -2.747000000    -2.944000000
O     4.846000000     2.963000000     4.835000000
H     4.562000000     3.013000000     3.922000000
H     4.035000000     3.009000000     5.340000000
O     2.389000000     2.513000000    -1.918000000
H     2.800000000     1.650000000    -1.972000000
H     2.883000000     2.971000000    -1.238000000
O     2.820000000     6.143000000    -0.450000000
H     3.603000000     5.678000000    -0.157000000
H     2.113000000     5.505000000    -0.358000000
O    -3.184000000     4.256000000     5.065000000
H    -2.274000000     4.116000000     4.802000000
H    -3.124000000     4.769000000     5.871000000
O     4.782000000     0.029000000    -1.471000000
H     3.994000000    -0.263000000    -1.013000000
H     5.327000000     0.417000000    -0.787000000
O    -2.562000000     3.106000000     1.598000000
H    -2.673000000     2.164000000     1.469000000
H    -1.715000000     3.189000000     2.036000000
O     2.449000000    -6.382000000    -0.201000000
H     2.051000000    -6.055000000     0.607000000
H     1.953000000    -7.174000000    -0.409000000
O    -1.808000000    -4.023000000    -2.095000000
H    -2.413000000    -3.610000000    -2.712000000
H    -1.042000000    -4.247000000    -2.624000000
O    -1.759000000     4.451000000    -0.644000000
H    -1.995000000     4.012000000     0.173000000
H    -2.246000000     3.980000000    -1.319000000
O    -1.848000000    -0.905000000     4.339000000
H    -2.342000000    -0.642000000     3.562000000
H    -0.955000000    -0.607000000     4.167000000
O    -2.928000000     4.414000000    -5.489000000
H    -3.020000000     4.171000000    -4.568000000
H    -3.727000000     4.902000000    -5.690000000
O     4.206000000    -0.617000000    -4.010000000
H     4.411000000    -0.288000000    -3.135000000
H     4.176000000     0.166000000    -4.560000000
O     3.921000000     1.728000000    -5.704000000
H     4.094000000     1.614000000    -6.639000000
H     3.322000000     2.473000000    -5.661000000
O     2.872000000    -0.782000000    -0.119000000
H     1.944000000    -0.802000000    -0.353000000
H     2.894000000    -0.356000000     0.737000000
O    -3.147000000    -0.285000000     2.029000000
H    -3.081000000    -0.995000000     1.390000000
H    -4.038000000    -0.353000000     2.371000000
O    -0.014000000    -4.720000000    -3.986000000
H     0.206000000    -5.226000000    -4.768000000
H     0.756000000    -4.803000000    -3.423000000
O    -0.757000000    -4.950000000     4.210000000
H    -0.713000000    -5.253000000     5.117000000
H    -1.483000000    -4.326000000     4.202000000
O     3.079000000     0.553000000     3.183000000
H     3.361000000     1.457000000     3.045000000
H     2.168000000     0.626000000     3.466000000
O     5.082000000    -2.725000000     0.352000000
H     4.501000000    -2.947000000     1.079000000
H     4.494000000    -2.577000000    -0.388000000
O    -0.450000000     2.820000000    -7.237000000
H    -1.099000000     3.370000000    -6.798000000
H    -0.564000000     1.955000000    -6.843000000
O     3.572000000    -3.212000000     2.456000000
H     3.156000000    -2.701000000     3.149000000
H     3.244000000    -4.102000000     2.585000000
O     2.446000000    -4.605000000     5.727000000
H     1.643000000    -5.100000000     5.567000000
H     2.265000000    -3.734000000     5.372000000
O    -0.908000000    -0.597000000    -6.439000000
H    -0.625000000    -1.396000000    -6.883000000
H    -0.096000000    -0.124000000    -6.257000000
