161
-3083.99036
C    -1.258000000     0.158000000     0.748000000
H    -2.187000000     0.334000000     1.284000000
C    -1.142000000     0.162000000    -0.635000000
H    -2.114000000     0.314000000    -1.097000000
C     0.062000000    -0.087000000    -1.283000000
C     0.102000000    -0.224000000    -2.722000000
H     0.669000000    -1.139000000    -2.904000000
H    -0.861000000    -0.293000000    -3.233000000
H     0.733000000     0.514000000    -3.221000000
C     1.202000000    -0.154000000    -0.493000000
H     2.188000000    -0.322000000    -0.918000000
C     1.143000000    -0.094000000     0.894000000
H     1.951000000    -0.442000000     1.533000000
C    -0.083000000     0.152000000     1.539000000
C    -0.124000000     0.331000000     3.079000000
O     0.615000000    -0.364000000     3.805000000
O    -0.903000000     1.149000000     3.625000000
O    -2.043000000     1.112000000    -8.039000000
H    -1.500000000     1.840000000    -7.737000000
H    -1.611000000     0.331000000    -7.691000000
O     2.770000000     3.031000000     0.659000000
H     3.021000000     2.938000000    -0.260000000
H     2.975000000     2.181000000     1.050000000
O    -3.253000000     0.690000000     6.195000000
H    -3.017000000     0.214000000     5.399000000
H    -2.573000000     1.357000000     6.286000000
O     1.554000000     1.437000000    -5.658000000
H     1.793000000     0.526000000    -5.829000000
H     0.604000000     1.461000000    -5.771000000
O    -0.972000000    -2.811000000     0.778000000
H    -0.215000000    -2.357000000     0.408000000
H    -1.208000000    -3.461000000     0.117000000
O    -0.666000000     4.139000000    -3.042000000
H    -0.542000000     4.104000000    -2.093000000
H    -0.905000000     5.049000000    -3.219000000
O    -0.473000000    -1.101000000    -7.248000000
H    -0.649000000    -1.896000000    -6.744000000
H    -0.048000000    -1.413000000    -8.046000000
O     4.619000000     1.872000000    -4.000000000
H     3.987000000     1.628000000    -4.676000000
H     5.467000000     1.839000000    -4.442000000
O    -4.547000000     0.325000000    -2.392000000
H    -3.945000000     0.095000000    -3.100000000
H    -4.589000000    -0.463000000    -1.849000000
O    -1.439000000    -3.023000000     6.219000000
H    -1.443000000    -3.795000000     6.786000000
H    -1.266000000    -3.369000000     5.344000000
O     1.531000000    -2.551000000     7.939000000
H     0.962000000    -2.108000000     7.310000000
H     2.117000000    -1.865000000     8.257000000
O    -4.249000000     3.213000000    -1.974000000
H    -4.404000000     3.510000000    -1.078000000
H    -4.159000000     2.263000000    -1.900000000
O    -6.383000000     1.443000000     1.069000000
H    -7.218000000     1.179000000     0.683000000
H    -6.110000000     0.686000000     1.588000000
O    -2.501000000     2.598000000    -4.399000000
H    -3.334000000     2.884000000    -4.024000000
H    -1.849000000     2.825000000    -3.735000000
O     2.418000000    -2.361000000    -6.518000000
H     1.907000000    -2.228000000    -7.317000000
H     2.571000000    -3.306000000    -6.487000000
O     5.593000000    -2.463000000     1.339000000
H     5.632000000    -3.163000000     0.687000000
H     5.005000000    -2.799000000     2.016000000
O    -5.397000000     0.080000000     3.443000000
H    -4.949000000     0.778000000     3.921000000
H    -4.706000000    -0.548000000     3.233000000
O     0.193000000    -0.558000000     6.373000000
H    -0.515000000    -1.202000000     6.396000000
H     0.359000000    -0.418000000     5.441000000
O     1.868000000     3.834000000    -4.247000000
H     1.048000000     3.935000000    -3.764000000
H     1.693000000     3.131000000    -4.872000000
O     4.007000000    -5.489000000    -3.188000000
H     4.735000000    -5.033000000    -3.611000000
H     3.460000000    -4.788000000    -2.833000000
O    -1.311000000     3.449000000     2.218000000
H    -1.273000000     2.594000000     2.647000000
H    -2.186000000     3.780000000     2.420000000
O    -2.111000000    -4.317000000    -1.530000000
H    -2.489000000    -3.735000000    -2.189000000
H    -1.562000000    -4.921000000    -2.030000000
O     4.149000000    -3.367000000     3.807000000
H     4.539000000    -2.744000000     4.419000000
H     3.239000000    -3.083000000     3.722000000
O    -3.290000000    -0.416000000    -5.036000000
H    -3.911000000    -0.786000000    -5.664000000
H    -2.832000000     0.267000000    -5.527000000
O     0.595000000     5.486000000     2.183000000
H     0.123000000     4.693000000     1.928000000
H    -0.064000000     6.179000000     2.148000000
O     1.267000000     5.029000000     4.896000000
H     1.282000000     5.906000000     5.278000000
H     0.958000000     5.163000000     4.000000000
O     5.296000000    -1.269000000     5.228000000
H     5.834000000    -0.538000000     5.533000000
H     4.511000000    -0.855000000     4.870000000
O     4.297000000     2.340000000    -1.317000000
H     4.773000000     1.599000000    -0.944000000
H     4.095000000     2.069000000    -2.212000000
O    -2.781000000    -2.687000000    -3.705000000
H    -2.684000000    -1.787000000    -4.019000000
H    -2.565000000    -3.229000000    -4.464000000
O    -0.241000000     3.839000000    -0.251000000
H     0.348000000     3.087000000    -0.319000000
H    -0.945000000     3.540000000     0.324000000
O    -4.721000000     2.663000000     5.061000000
H    -4.556000000     1.897000000     5.611000000
H    -5.098000000     3.310000000     5.657000000
O    -0.712000000     2.740000000     5.820000000
H    -0.906000000     2.292000000     4.996000000
H    -0.049000000     3.390000000     5.589000000
O     2.225000000    -3.364000000    -2.262000000
H     2.320000000    -3.225000000    -1.320000000
H     1.285000000    -3.488000000    -2.392000000
O    -5.011000000    -2.440000000    -1.932000000
H    -5.615000000    -3.179000000    -2.012000000
H    -4.209000000    -2.738000000    -2.361000000
O    -3.042000000    -0.967000000     3.872000000
H    -2.273000000    -0.397000000     3.842000000
H    -2.691000000    -1.850000000     3.750000000
O    -6.538000000     2.053000000    -3.231000000
H    -6.117000000     2.903000000    -3.107000000
H    -5.865000000     1.415000000    -2.991000000
O     0.503000000     1.517000000     7.918000000
H     0.504000000     0.714000000     7.397000000
H    -0.236000000     2.022000000     7.579000000
O     1.458000000    -2.767000000     3.201000000
H     0.583000000    -3.155000000     3.209000000
H     1.313000000    -1.845000000     3.411000000
O    -4.979000000     3.771000000     0.553000000
H    -4.578000000     4.008000000     1.389000000
H    -5.395000000     2.925000000     0.718000000
O     2.418000000     3.134000000     6.550000000
H     2.155000000     3.638000000     5.780000000
H     1.652000000     2.600000000     6.760000000
O     3.498000000    -1.584000000    -3.970000000
H     2.986000000    -1.998000000    -3.275000000
H     3.143000000    -1.950000000    -4.780000000
O     4.522000000     1.243000000     2.473000000
H     5.252000000     1.602000000     2.978000000
H     3.910000000     0.919000000     3.133000000
O     4.501000000    -0.283000000     0.070000000
H     4.907000000    -1.003000000     0.553000000
H     4.422000000     0.422000000     0.712000000
O    -1.891000000    -3.309000000     3.272000000
H    -1.617000000    -3.220000000     2.360000000
H    -2.278000000    -4.183000000     3.323000000
O     1.132000000    -5.304000000    -4.621000000
H     1.713000000    -5.958000000    -4.233000000
H     1.680000000    -4.846000000    -5.258000000
O     3.077000000     0.257000000     4.908000000
H     3.085000000     1.070000000     5.412000000
H     2.169000000     0.160000000     4.623000000
O     5.955000000    -1.296000000    -2.262000000
H     5.422000000    -1.249000000    -1.468000000
H     5.323000000    -1.232000000    -2.979000000
O     2.048000000    -3.546000000     0.505000000
H     1.860000000    -3.315000000     1.414000000
H     2.059000000    -4.503000000     0.498000000
