161
-3049.46598
C     0.164000000     1.462000000    -0.006000000
H     0.055000000     2.525000000    -0.207000000
C    -0.389000000     0.670000000    -0.988000000
H    -0.922000000     1.112000000    -1.826000000
C    -0.496000000    -0.704000000    -0.855000000
C    -1.110000000    -1.457000000    -2.025000000
H    -1.016000000    -2.537000000    -1.900000000
H    -2.167000000    -1.187000000    -1.996000000
H    -0.625000000    -1.276000000    -2.987000000
C     0.001000000    -1.311000000     0.308000000
H    -0.102000000    -2.383000000     0.456000000
C     0.554000000    -0.486000000     1.271000000
H     0.866000000    -1.005000000     2.173000000
C     0.662000000     0.865000000     1.124000000
C     1.313000000     1.716000000     2.211000000
O     1.676000000     1.091000000     3.208000000
O     1.534000000     2.904000000     2.037000000
O     4.101000000    -2.681000000    -0.527000000
H     3.757000000    -1.791000000    -0.600000000
H     4.485000000    -2.860000000    -1.386000000
O     4.551000000     2.389000000     5.807000000
H     4.330000000     2.022000000     6.663000000
H     4.632000000     1.627000000     5.233000000
O     2.777000000    -6.122000000     1.965000000
H     2.519000000    -5.963000000     1.057000000
H     3.120000000    -5.281000000     2.268000000
O     0.674000000    -1.307000000    -5.694000000
H     0.825000000    -2.106000000    -5.191000000
H     1.540000000    -1.062000000    -6.020000000
O     2.395000000     7.295000000     2.926000000
H     1.986000000     6.622000000     2.382000000
H     1.810000000     7.384000000     3.678000000
O     0.762000000     3.429000000    -3.411000000
H     1.027000000     4.040000000    -4.098000000
H     1.489000000     3.439000000    -2.788000000
O    -1.825000000     2.753000000    -4.526000000
H    -2.337000000     2.631000000    -3.726000000
H    -0.984000000     3.095000000    -4.223000000
O    -0.914000000    -5.349000000    -5.794000000
H    -1.086000000    -5.540000000    -6.716000000
H    -1.781000000    -5.229000000    -5.408000000
O    -1.457000000     0.269000000    -6.263000000
H    -0.693000000    -0.234000000    -5.979000000
H    -1.469000000     1.033000000    -5.687000000
O    -3.407000000    -4.069000000    -2.155000000
H    -2.652000000    -4.104000000    -1.568000000
H    -3.931000000    -4.835000000    -1.918000000
O    -2.557000000     2.493000000     3.773000000
H    -1.922000000     3.179000000     3.568000000
H    -2.024000000     1.749000000     4.053000000
O    -0.752000000     6.987000000     1.120000000
H     0.183000000     6.781000000     1.117000000
H    -1.179000000     6.164000000     0.886000000
O     5.256000000    -0.896000000     6.444000000
H     5.685000000    -1.723000000     6.222000000
H     4.534000000    -0.825000000     5.820000000
O     0.690000000    -3.860000000    -4.233000000
H     0.698000000    -4.403000000    -3.444000000
H     0.058000000    -4.287000000    -4.811000000
O     1.263000000     2.066000000     7.514000000
H     2.170000000     1.850000000     7.733000000
H     0.849000000     2.243000000     8.359000000
O     3.752000000     2.859000000    -0.089000000
H     3.547000000     3.537000000    -0.733000000
H     4.523000000     3.190000000     0.371000000
O    -0.337000000     1.011000000     4.910000000
H    -0.132000000     1.519000000     5.695000000
H     0.301000000     1.307000000     4.261000000
O     1.665000000     5.463000000     1.027000000
H     2.223000000     5.447000000     0.250000000
H     1.786000000     4.602000000     1.427000000
O     3.391000000    -0.456000000     4.446000000
H     2.759000000     0.139000000     4.041000000
H     4.205000000    -0.303000000     3.967000000
O     4.576000000     2.530000000     2.981000000
H     4.610000000     2.986000000     3.822000000
H     3.645000000     2.497000000     2.763000000
O     5.529000000     5.211000000     1.091000000
H     5.547000000     4.963000000     2.015000000
H     5.221000000     6.117000000     1.092000000
O     3.023000000    -4.116000000    -5.898000000
H     2.229000000    -3.956000000    -5.388000000
H     3.508000000    -4.764000000    -5.388000000
O     1.162000000    -4.053000000     3.858000000
H     1.736000000    -4.039000000     3.091000000
H     0.893000000    -3.142000000     3.972000000
O    -0.332000000    -1.835000000     4.698000000
H    -1.088000000    -2.194000000     5.162000000
H    -0.391000000    -0.890000000     4.839000000
O    -0.706000000    -6.325000000     3.545000000
H    -0.064000000    -5.642000000     3.744000000
H    -0.973000000    -6.659000000     4.401000000
O    -1.335000000    -5.037000000    -0.452000000
H    -0.466000000    -4.778000000    -0.756000000
H    -1.344000000    -5.991000000    -0.537000000
O    -3.691000000     3.073000000    -2.227000000
H    -3.562000000     4.014000000    -2.111000000
H    -3.836000000     2.740000000    -1.341000000
O     0.320000000     6.626000000     4.695000000
H    -0.016000000     7.220000000     5.366000000
H     0.378000000     5.778000000     5.135000000
O    -4.222000000    -0.306000000    -6.444000000
H    -4.423000000    -0.833000000    -5.670000000
H    -3.268000000    -0.230000000    -6.440000000
O    -6.307000000    -2.629000000    -0.306000000
H    -6.346000000    -1.903000000    -0.928000000
H    -5.450000000    -3.028000000    -0.457000000
O     1.310000000    -4.036000000    -1.378000000
H     2.125000000    -4.533000000    -1.439000000
H     1.575000000    -3.181000000    -1.037000000
O    -0.529000000     4.191000000     2.999000000
H     0.288000000     3.765000000     2.741000000
H    -0.267000000     5.075000000     3.257000000
O    -3.001000000    -0.746000000     1.603000000
H    -3.070000000    -1.699000000     1.554000000
H    -2.082000000    -0.561000000     1.409000000
O    -2.119000000     4.506000000     0.885000000
H    -2.901000000     3.955000000     0.838000000
H    -1.664000000     4.209000000     1.673000000
O     1.020000000     4.512000000     6.287000000
H     0.532000000     3.692000000     6.212000000
H     1.938000000     4.251000000     6.224000000
O     2.136000000    -1.357000000     6.891000000
H     1.241000000    -1.521000000     6.594000000
H     2.567000000    -0.950000000     6.140000000
O    -4.477000000    -1.596000000    -3.824000000
H    -5.332000000    -2.015000000    -3.722000000
H    -3.875000000    -2.159000000    -3.337000000
O    -2.098000000     5.643000000    -1.524000000
H    -2.303000000     5.421000000    -0.616000000
H    -1.295000000     6.160000000    -1.468000000
O     3.882000000     0.376000000    -3.717000000
H     3.447000000     0.093000000    -2.913000000
H     3.891000000    -0.404000000    -4.272000000
O    -4.207000000     2.790000000     0.820000000
H    -5.059000000     2.389000000     0.648000000
H    -3.681000000     2.083000000     1.196000000
O    -3.394000000    -5.103000000    -4.888000000
H    -4.342000000    -5.094000000    -5.017000000
H    -3.273000000    -4.827000000    -3.979000000
O     0.645000000     6.792000000    -1.897000000
H     1.325000000     6.122000000    -1.966000000
H     1.007000000     7.439000000    -1.292000000
O    -2.929000000    -3.907000000     1.505000000
H    -2.901000000    -4.244000000     2.401000000
H    -2.441000000    -4.551000000     0.992000000
O    -0.079000000    -7.382000000     1.057000000
H     0.770000000    -7.788000000     1.235000000
H    -0.224000000    -6.797000000     1.801000000
O     3.005000000     0.263000000    -0.873000000
H     2.079000000     0.205000000    -1.107000000
H     3.126000000     1.172000000    -0.599000000
O     3.468000000    -3.072000000     2.139000000
H     3.665000000    -2.152000000     2.315000000
H     3.591000000    -3.167000000     1.194000000
O     4.543000000    -0.440000000     1.946000000
H     5.449000000    -0.130000000     1.969000000
H     4.113000000     0.126000000     1.305000000
O    -2.195000000    -2.575000000    -7.278000000
H    -2.358000000    -2.275000000    -6.383000000
H    -1.248000000    -2.705000000    -7.318000000
