161
-3054.50141
C    -0.005000000    -0.143000000     1.447000000
H    -0.067000000    -0.241000000     2.528000000
C    -1.123000000     0.101000000     0.620000000
H    -2.084000000     0.008000000     1.119000000
C    -0.990000000     0.272000000    -0.708000000
C    -2.221000000     0.449000000    -1.626000000
H    -2.221000000    -0.401000000    -2.310000000
H    -3.133000000     0.463000000    -1.024000000
H    -2.066000000     1.296000000    -2.298000000
C     0.328000000     0.162000000    -1.204000000
H     0.392000000     0.358000000    -2.271000000
C     1.398000000    -0.138000000    -0.472000000
H     2.364000000    -0.163000000    -0.969000000
C     1.236000000    -0.280000000     0.883000000
C     2.405000000    -0.571000000     1.835000000
O     3.556000000    -0.479000000     1.394000000
O     2.229000000    -0.700000000     3.062000000
O     7.350000000    -1.273000000    -0.180000000
H     6.921000000    -1.756000000    -0.886000000
H     7.841000000    -1.938000000     0.302000000
O    -4.948000000     1.906000000    -5.240000000
H    -4.454000000     2.592000000    -5.689000000
H    -4.811000000     1.124000000    -5.775000000
O     3.565000000     3.001000000    -0.590000000
H     2.924000000     2.957000000     0.121000000
H     4.193000000     2.307000000    -0.389000000
O    -1.188000000     2.772000000     2.561000000
H    -1.457000000     2.296000000     1.776000000
H    -1.434000000     2.198000000     3.286000000
O    -2.852000000    -2.070000000    -6.270000000
H    -2.058000000    -1.796000000    -5.811000000
H    -2.958000000    -2.992000000    -6.035000000
O    -1.303000000     0.461000000    -6.819000000
H    -0.581000000     1.071000000    -6.966000000
H    -1.883000000     0.918000000    -6.209000000
O     6.627000000     0.216000000    -3.465000000
H     6.162000000    -0.347000000    -2.846000000
H     6.462000000    -0.181000000    -4.320000000
O     5.733000000    -4.520000000     3.812000000
H     5.234000000    -4.379000000     4.617000000
H     5.795000000    -3.652000000     3.413000000
O     3.707000000     1.070000000    -6.225000000
H     3.587000000     1.068000000    -5.275000000
H     4.398000000     1.715000000    -6.377000000
O     0.835000000    -3.182000000    -5.175000000
H     0.618000000    -3.928000000    -5.734000000
H     0.322000000    -3.322000000    -4.379000000
O    -0.243000000    -2.829000000    -0.573000000
H     0.027000000    -2.031000000    -0.119000000
H     0.378000000    -3.495000000    -0.278000000
O    -7.916000000    -0.163000000     1.070000000
H    -7.027000000     0.191000000     1.109000000
H    -7.840000000    -1.042000000     1.441000000
O     7.493000000     1.751000000     1.393000000
H     6.744000000     1.296000000     1.780000000
H     7.168000000     2.076000000     0.553000000
O    -3.056000000     0.149000000     5.068000000
H    -2.273000000     0.699000000     5.095000000
H    -2.737000000    -0.707000000     4.780000000
O     1.631000000    -4.975000000     3.985000000
H     0.702000000    -4.975000000     4.214000000
H     1.806000000    -5.869000000     3.691000000
O    -1.504000000    -5.428000000     1.027000000
H    -1.884000000    -5.815000000     1.817000000
H    -1.707000000    -4.495000000     1.096000000
O     4.787000000    -1.632000000     5.157000000
H     4.861000000    -1.533000000     4.208000000
H     4.186000000    -0.937000000     5.424000000
O     2.410000000    -3.877000000     1.163000000
H     2.167000000    -4.377000000     1.943000000
H     3.299000000    -3.571000000     1.343000000
O     1.813000000     4.537000000    -2.224000000
H     2.571000000     4.090000000    -1.847000000
H     2.140000000     5.404000000    -2.461000000
O    -6.179000000     0.914000000    -2.897000000
H    -6.231000000     1.650000000    -2.287000000
H    -5.729000000     1.270000000    -3.664000000
O     4.922000000    -1.833000000    -5.303000000
H     4.755000000    -2.763000000    -5.146000000
H     4.254000000    -1.380000000    -4.789000000
O     4.879000000     1.323000000     2.387000000
H     5.044000000     1.262000000     3.328000000
H     4.374000000     0.536000000     2.181000000
O     0.859000000     1.772000000    -6.943000000
H     1.778000000     1.563000000    -7.106000000
H     0.810000000     1.921000000    -5.999000000
O    -3.530000000    -3.575000000    -1.086000000
H    -4.122000000    -2.903000000    -1.425000000
H    -2.752000000    -3.090000000    -0.808000000
O     0.597000000    -0.436000000     6.843000000
H    -0.216000000    -0.608000000     7.319000000
H     0.747000000    -1.230000000     6.330000000
O    -3.157000000     4.058000000     0.135000000
H    -3.342000000     4.745000000    -0.505000000
H    -2.574000000     4.474000000     0.771000000
O     3.441000000    -3.635000000    -1.579000000
H     4.214000000    -3.215000000    -1.200000000
H     3.034000000    -4.093000000    -0.844000000
O     2.790000000    -1.702000000    -3.780000000
H     3.063000000    -2.374000000    -3.155000000
H     2.130000000    -2.134000000    -4.322000000
O     1.690000000     2.569000000     3.536000000
H     1.007000000     2.247000000     4.125000000
H     2.057000000     1.778000000     3.140000000
O    -0.356000000     1.451000000     5.154000000
H     0.057000000     0.615000000     5.370000000
H    -0.439000000     1.902000000     5.994000000
O     3.577000000     1.243000000    -3.409000000
H     4.214000000     1.284000000    -2.696000000
H     2.873000000     0.691000000    -3.070000000
O    -1.842000000    -2.381000000     4.796000000
H    -2.063000000    -3.037000000     5.457000000
H    -0.885000000    -2.364000000     4.785000000
O    -3.016000000    -2.562000000     2.122000000
H    -2.182000000    -2.606000000     2.589000000
H    -3.674000000    -2.483000000     2.814000000
O    -5.412000000     2.694000000    -0.600000000
H    -4.628000000     3.202000000    -0.392000000
H    -6.078000000     3.352000000    -0.799000000
O    -1.063000000     4.268000000    -2.053000000
H    -0.111000000     4.266000000    -2.151000000
H    -1.274000000     3.391000000    -1.735000000
O    -5.518000000     0.718000000     1.120000000
H    -5.271000000     1.162000000     1.931000000
H    -5.651000000     1.426000000     0.490000000
O     4.966000000     0.452000000    -0.760000000
H     4.575000000     0.208000000     0.079000000
H     5.824000000     0.028000000    -0.757000000
O     5.238000000    -3.837000000     0.344000000
H     5.198000000    -3.688000000     1.288000000
H     5.699000000    -4.671000000     0.253000000
O    -6.451000000    -1.888000000    -4.337000000
H    -6.204000000    -1.104000000    -3.846000000
H    -5.638000000    -2.180000000    -4.748000000
O     0.978000000    -2.024000000     4.785000000
H     1.326000000    -2.899000000     4.613000000
H     1.505000000    -1.445000000     4.235000000
O    -5.077000000    -1.180000000    -0.977000000
H    -5.356000000    -0.540000000    -1.632000000
H    -5.184000000    -0.729000000    -0.140000000
O     0.869000000     4.426000000     1.557000000
H     0.266000000     3.718000000     1.783000000
H     1.616000000     4.299000000     2.141000000
O    -2.070000000     2.543000000    -5.210000000
H    -1.342000000     2.813000000    -4.649000000
H    -2.852000000     2.713000000    -4.685000000
O     0.699000000     2.854000000    -4.361000000
H     1.218000000     2.843000000    -3.557000000
H     0.920000000     3.686000000    -4.779000000
O    -1.042000000    -3.586000000    -3.265000000
H    -1.870000000    -4.050000000    -3.141000000
H    -0.705000000    -3.456000000    -2.379000000
O    -1.363000000     5.520000000    -4.544000000
H    -1.237000000     5.431000000    -3.600000000
H    -0.482000000     5.664000000    -4.891000000
O     5.247000000    -2.043000000     2.412000000
H     4.549000000    -1.574000000     1.954000000
H     6.053000000    -1.749000000     1.985000000
O     3.620000000     0.889000000     4.953000000
H     3.300000000     1.699000000     4.555000000
H     3.051000000     0.206000000     4.599000000
