161
-3054.21880
C     0.391000000     1.390000000     0.153000000
H     0.681000000     2.437000000     0.182000000
C    -0.526000000     1.024000000    -0.791000000
H    -1.116000000     1.727000000    -1.373000000
C    -0.920000000    -0.371000000    -0.758000000
C    -1.807000000    -0.959000000    -1.869000000
H    -1.724000000    -0.399000000    -2.803000000
H    -1.513000000    -1.991000000    -2.070000000
H    -2.869000000    -0.994000000    -1.620000000
C    -0.259000000    -1.237000000     0.153000000
H    -0.404000000    -2.313000000     0.200000000
C     0.707000000    -0.808000000     1.030000000
H     1.179000000    -1.457000000     1.763000000
C     1.077000000     0.525000000     1.022000000
C     2.160000000     1.035000000     1.953000000
O     2.899000000     0.231000000     2.468000000
O     2.037000000     2.164000000     2.357000000
O     6.461000000    -2.469000000     1.205000000
H     6.331000000    -3.410000000     1.322000000
H     5.859000000    -2.230000000     0.500000000
O    -3.139000000    -1.416000000     1.991000000
H    -4.069000000    -1.634000000     2.042000000
H    -3.113000000    -0.460000000     2.036000000
O    -3.537000000     1.115000000    -6.784000000
H    -3.405000000     1.905000000    -6.260000000
H    -3.032000000     1.271000000    -7.582000000
O     7.176000000     1.347000000     4.258000000
H     6.296000000     1.601000000     3.981000000
H     7.038000000     0.826000000     5.048000000
O     2.986000000    -6.272000000     2.355000000
H     3.716000000    -6.425000000     1.755000000
H     3.175000000    -5.421000000     2.750000000
O     1.204000000     1.526000000    -4.641000000
H     1.761000000     1.056000000    -4.020000000
H     1.690000000     2.325000000    -4.842000000
O     0.140000000     4.871000000    -1.637000000
H     1.080000000     4.981000000    -1.489000000
H    -0.012000000     5.257000000    -2.500000000
O    -1.602000000     1.965000000    -4.485000000
H    -0.685000000     1.698000000    -4.412000000
H    -1.575000000     2.779000000    -4.987000000
O    -6.549000000    -2.828000000    -1.877000000
H    -5.905000000    -2.858000000    -2.585000000
H    -7.015000000    -2.003000000    -2.012000000
O    -4.885000000     4.156000000    -1.699000000
H    -4.911000000     4.043000000    -0.749000000
H    -4.567000000     3.317000000    -2.032000000
O    -1.321000000    -5.220000000    -3.816000000
H    -1.795000000    -6.032000000    -3.998000000
H    -1.549000000    -5.007000000    -2.911000000
O    -2.045000000    -2.836000000     3.987000000
H    -1.522000000    -3.350000000     3.371000000
H    -2.659000000    -2.353000000     3.435000000
O    -0.028000000     3.661000000     7.057000000
H     0.697000000     4.245000000     7.283000000
H     0.270000000     3.203000000     6.271000000
O     0.735000000    -7.197000000    -1.714000000
H    -0.031000000    -7.490000000    -1.219000000
H     0.675000000    -6.242000000    -1.703000000
O     1.232000000    -3.027000000    -2.840000000
H     0.605000000    -3.680000000    -2.528000000
H     1.923000000    -3.023000000    -2.178000000
O     3.251000000     2.029000000     6.499000000
H     3.318000000     2.902000000     6.885000000
H     2.884000000     1.487000000     7.198000000
O    -2.869000000    -1.577000000    -5.760000000
H    -3.466000000    -1.998000000    -6.379000000
H    -2.866000000    -0.655000000    -6.018000000
O     3.205000000     3.036000000    -1.668000000
H     3.713000000     3.474000000    -0.985000000
H     2.552000000     3.683000000    -1.933000000
O     1.083000000     2.342000000     4.810000000
H     1.875000000     2.217000000     5.333000000
H     1.393000000     2.356000000     3.905000000
O     0.514000000     4.617000000     2.379000000
H    -0.118000000     4.488000000     3.086000000
H     1.094000000     3.857000000     2.434000000
O     6.337000000    -0.450000000     5.950000000
H     5.665000000    -0.536000000     5.274000000
H     5.850000000    -0.454000000     6.774000000
O     1.741000000    -1.917000000     4.479000000
H     1.278000000    -1.518000000     5.215000000
H     1.985000000    -1.179000000     3.921000000
O     4.642000000     2.092000000     4.016000000
H     4.410000000     1.809000000     4.901000000
H     3.878000000     1.868000000     3.486000000
O     5.166000000     4.751000000     4.515000000
H     5.013000000     3.836000000     4.279000000
H     5.934000000     4.724000000     5.087000000
O    -0.520000000    -4.361000000     2.383000000
H     0.142000000    -3.927000000     2.921000000
H    -0.608000000    -5.232000000     2.770000000
O    -2.575000000    -3.828000000     0.540000000
H    -2.124000000    -4.424000000     1.138000000
H    -2.614000000    -2.997000000     1.013000000
O    -0.273000000    -4.691000000    -1.096000000
H     0.440000000    -4.379000000    -0.538000000
H    -0.957000000    -4.958000000    -0.482000000
O    -4.264000000     3.549000000     0.813000000
H    -3.406000000     3.955000000     0.692000000
H    -4.081000000     2.610000000     0.862000000
O     3.906000000     4.198000000     0.714000000
H     3.613000000     5.091000000     0.897000000
H     3.376000000     3.649000000     1.293000000
O    -4.487000000    -1.980000000    -3.598000000
H    -3.991000000    -2.216000000    -4.382000000
H    -4.922000000    -1.159000000    -3.828000000
O     2.748000000    -3.950000000     0.059000000
H     2.785000000    -3.991000000     1.015000000
H     3.458000000    -3.356000000    -0.183000000
O     2.519000000     5.135000000     6.101000000
H     3.164000000     5.094000000     5.395000000
H     3.012000000     5.453000000     6.858000000
O     4.358000000    -1.631000000    -0.593000000
H     5.030000000    -1.181000000    -1.106000000
H     3.554000000    -1.144000000    -0.772000000
O    -2.007000000     4.217000000     3.633000000
H    -2.822000000     4.591000000     3.298000000
H    -2.073000000     3.283000000     3.434000000
O    -3.683000000    -4.093000000    -1.884000000
H    -3.781000000    -3.246000000    -2.318000000
H    -3.288000000    -3.884000000    -1.037000000
O    -4.017000000     1.777000000    -2.889000000
H    -4.513000000     1.375000000    -3.602000000
H    -3.167000000     1.987000000    -3.276000000
O    -1.715000000     4.680000000     0.228000000
H    -1.247000000     4.759000000     1.060000000
H    -1.023000000     4.590000000    -0.428000000
O    -4.486000000     0.692000000    -0.402000000
H    -3.647000000     0.232000000    -0.357000000
H    -4.572000000     0.945000000    -1.321000000
O     5.251000000     0.739000000     0.876000000
H     4.496000000     1.088000000     1.349000000
H     4.890000000     0.038000000     0.334000000
O    -5.513000000     0.196000000    -4.719000000
H    -6.357000000     0.635000000    -4.824000000
H    -5.125000000     0.210000000    -5.594000000
O    -1.874000000     1.462000000     2.420000000
H    -1.124000000     1.678000000     1.866000000
H    -1.509000000     0.909000000     3.111000000
O    -0.945000000    -0.174000000     4.403000000
H    -0.561000000     0.133000000     5.224000000
H    -0.862000000    -1.127000000     4.441000000
O    -1.069000000    -3.732000000    -6.172000000
H    -1.292000000    -2.811000000    -6.039000000
H    -1.277000000    -4.152000000    -5.337000000
O     2.822000000     6.599000000     1.698000000
H     1.900000000     6.370000000     1.816000000
H     2.853000000     7.029000000     0.843000000
O     2.262000000    -2.415000000    -5.438000000
H     2.996000000    -1.912000000    -5.085000000
H     1.658000000    -2.506000000    -4.702000000
O     2.304000000     0.288000000    -2.129000000
H     2.408000000     1.190000000    -1.826000000
H     1.410000000     0.053000000    -1.879000000
O     3.333000000    -3.680000000     2.759000000
H     2.978000000    -3.112000000     3.442000000
H     4.222000000    -3.879000000     3.051000000
O     4.821000000    -1.202000000     3.674000000
H     4.131000000    -0.677000000     3.270000000
H     5.137000000    -1.767000000     2.969000000
