161
-3080.62065
C    -0.491000000     1.033000000     1.005000000
H    -1.039000000     1.657000000     1.707000000
C    -1.284000000     0.367000000     0.041000000
H    -2.312000000     0.674000000    -0.138000000
C    -0.729000000    -0.576000000    -0.853000000
C    -1.525000000    -1.141000000    -1.945000000
H    -2.365000000    -0.517000000    -2.260000000
H    -0.835000000    -1.192000000    -2.790000000
H    -1.776000000    -2.158000000    -1.636000000
C     0.594000000    -0.866000000    -0.695000000
H     1.057000000    -1.514000000    -1.435000000
C     1.436000000    -0.176000000     0.177000000
H     2.488000000    -0.451000000     0.179000000
C     0.845000000     0.649000000     1.160000000
C     1.747000000     1.250000000     2.219000000
O     2.954000000     1.050000000     2.129000000
O     1.232000000     1.911000000     3.132000000
O    -0.065000000     4.124000000     2.061000000
H     0.005000000     3.340000000     2.606000000
H     0.677000000     4.667000000     2.325000000
O     0.469000000    -2.249000000    -7.391000000
H     1.055000000    -1.565000000    -7.716000000
H     0.786000000    -2.436000000    -6.507000000
O     5.577000000     3.627000000    -1.026000000
H     5.316000000     2.774000000    -0.679000000
H     5.758000000     3.463000000    -1.952000000
O     2.241000000     4.126000000     6.325000000
H     1.356000000     4.422000000     6.536000000
H     2.137000000     3.202000000     6.097000000
O     5.875000000    -1.402000000     0.079000000
H     5.215000000    -1.879000000    -0.424000000
H     6.128000000    -2.007000000     0.777000000
O     0.617000000     0.377000000    -4.664000000
H     0.218000000     0.672000000    -5.483000000
H     0.199000000     0.910000000    -3.988000000
O     2.793000000     4.208000000     0.939000000
H     2.700000000     4.765000000     1.712000000
H     2.676000000     3.317000000     1.270000000
O    -5.388000000    -3.875000000    -3.093000000
H    -5.970000000    -3.514000000    -2.424000000
H    -5.943000000    -3.965000000    -3.868000000
O     2.186000000    -1.756000000    -5.260000000
H     3.035000000    -1.393000000    -5.510000000
H     1.635000000    -0.990000000    -5.102000000
O     1.653000000     6.228000000     2.495000000
H     1.492000000     7.021000000     1.984000000
H     1.079000000     6.312000000     3.256000000
O     6.609000000     3.368000000     2.213000000
H     6.340000000     2.731000000     1.551000000
H     5.837000000     3.919000000     2.342000000
O    -4.289000000     1.963000000    -5.031000000
H    -5.141000000     1.890000000    -4.601000000
H    -4.323000000     1.318000000    -5.738000000
O     3.479000000    -2.926000000     0.012000000
H     2.865000000    -2.622000000    -0.657000000
H     3.744000000    -3.797000000    -0.284000000
O    -4.613000000     0.717000000     2.092000000
H    -3.886000000     0.103000000     1.995000000
H    -4.540000000     1.035000000     2.992000000
O     5.065000000     1.088000000     0.456000000
H     4.317000000     1.069000000     1.052000000
H     5.495000000     0.243000000     0.585000000
O    -2.670000000    -2.551000000     2.521000000
H    -3.069000000    -2.824000000     3.347000000
H    -1.803000000    -2.229000000     2.769000000
O    -4.202000000    -2.236000000     0.324000000
H    -3.737000000    -2.291000000     1.159000000
H    -3.746000000    -2.854000000    -0.246000000
O     2.565000000    -3.463000000    -2.974000000
H     2.165000000    -2.997000000    -3.707000000
H     2.040000000    -4.258000000    -2.880000000
O    -4.504000000    -1.530000000    -4.306000000
H    -4.495000000    -2.420000000    -3.954000000
H    -5.316000000    -1.148000000    -3.971000000
O    -1.714000000    -5.540000000     0.630000000
H    -2.484000000    -5.471000000     0.065000000
H    -2.047000000    -5.922000000     1.442000000
O     0.167000000    -4.774000000    -1.273000000
H    -0.390000000    -4.904000000    -0.506000000
H    -0.335000000    -4.184000000    -1.836000000
O     3.625000000     0.623000000    -3.338000000
H     2.736000000     0.490000000    -3.010000000
H     4.034000000     1.204000000    -2.696000000
O    -2.015000000     3.155000000    -4.983000000
H    -1.682000000     2.633000000    -4.253000000
H    -2.880000000     2.788000000    -5.166000000
O    -5.874000000     2.902000000    -0.860000000
H    -4.998000000     3.175000000    -0.585000000
H    -6.142000000     2.262000000    -0.201000000
O    -3.667000000     1.696000000     4.725000000
H    -2.754000000     1.954000000     4.598000000
H    -3.618000000     0.816000000     5.098000000
O     0.084000000     5.924000000    -0.405000000
H    -0.682000000     5.504000000    -0.015000000
H     0.750000000     5.237000000    -0.427000000
O    -4.957000000     0.119000000    -1.430000000
H    -4.552000000    -0.639000000    -1.010000000
H    -4.527000000     0.874000000    -1.028000000
O     4.244000000     3.684000000     3.605000000
H     3.830000000     2.832000000     3.467000000
H     5.005000000     3.494000000     4.153000000
O    -4.413000000     3.419000000     1.483000000
H    -5.255000000     3.806000000     1.724000000
H    -4.482000000     2.505000000     1.760000000
O    -2.009000000    -4.804000000    -3.610000000
H    -1.942000000    -4.109000000    -4.265000000
H    -1.953000000    -5.615000000    -4.116000000
O     2.206000000     1.493000000     5.675000000
H     1.788000000     1.715000000     4.844000000
H     3.048000000     1.111000000     5.426000000
O    -3.305000000    -4.568000000    -1.309000000
H    -4.086000000    -4.844000000    -1.789000000
H    -2.588000000    -4.679000000    -1.934000000
O    -2.303000000     5.094000000     0.918000000
H    -1.659000000     4.790000000     1.558000000
H    -3.108000000     4.632000000     1.151000000
O    -0.155000000    -2.311000000     3.669000000
H     0.572000000    -2.145000000     3.069000000
H     0.118000000    -1.908000000     4.494000000
O    -1.067000000     2.346000000     4.341000000
H    -0.302000000     1.939000000     3.936000000
H    -0.724000000     3.132000000     4.766000000
O     5.212000000    -0.341000000     6.632000000
H     4.900000000     0.354000000     6.053000000
H     5.114000000     0.021000000     7.513000000
O    -1.822000000    -2.160000000    -4.978000000
H    -1.105000000    -1.540000000    -4.846000000
H    -2.612000000    -1.660000000    -4.775000000
O     1.563000000     2.629000000    -1.642000000
H     2.076000000     2.381000000    -0.873000000
H     1.797000000     3.544000000    -1.801000000
O     4.547000000     0.930000000     4.237000000
H     5.453000000     0.841000000     3.942000000
H     4.023000000     0.775000000     3.452000000
O     2.418000000    -1.874000000     2.748000000
H     2.563000000    -0.979000000     2.441000000
H     2.623000000    -2.423000000     1.991000000
O    -6.730000000    -0.212000000    -3.158000000
H    -6.199000000    -0.328000000    -2.370000000
H    -7.604000000    -0.511000000    -2.904000000
O    -3.025000000     2.785000000    -1.416000000
H    -3.250000000     3.118000000    -2.285000000
H    -2.786000000     3.565000000    -0.915000000
O     7.145000000     0.666000000     3.564000000
H     7.491000000     1.399000000     4.072000000
H     7.798000000     0.518000000     2.880000000
O    -2.275000000     5.809000000     3.750000000
H    -2.465000000     4.871000000     3.743000000
H    -3.121000000     6.227000000     3.591000000
O     5.157000000    -2.132000000    -3.003000000
H     5.032000000    -1.187000000    -2.916000000
H     4.300000000    -2.507000000    -2.801000000
O     1.295000000     0.423000000     8.178000000
H     1.628000000     0.732000000     7.335000000
H     0.759000000     1.146000000     8.503000000
O    -0.988000000     1.762000000    -2.928000000
H    -0.248000000     1.977000000    -2.360000000
H    -1.726000000     1.653000000    -2.329000000
O     0.767000000    -1.841000000     6.197000000
H     0.624000000    -0.895000000     6.155000000
H     0.129000000    -2.151000000     6.839000000
