161
-3043.20761
C    -1.286000000     0.630000000    -0.372000000
H    -2.167000000     1.087000000    -0.816000000
C    -0.129000000     1.316000000    -0.089000000
H    -0.048000000     2.385000000    -0.267000000
C     1.042000000     0.641000000     0.175000000
C     2.294000000     1.404000000     0.465000000
H     2.078000000     2.244000000     1.128000000
H     3.001000000     0.770000000     1.005000000
H     2.779000000     1.827000000    -0.417000000
C     1.055000000    -0.726000000     0.159000000
H     1.964000000    -1.241000000     0.457000000
C    -0.124000000    -1.472000000    -0.079000000
H    -0.141000000    -2.545000000     0.093000000
C    -1.333000000    -0.801000000    -0.256000000
C    -2.629000000    -1.580000000    -0.357000000
O    -2.627000000    -2.790000000    -0.171000000
O    -3.733000000    -1.150000000    -0.661000000
O    -4.691000000    -0.264000000    -2.750000000
H    -3.932000000    -0.249000000    -3.333000000
H    -4.354000000    -0.619000000    -1.928000000
O     6.947000000     3.068000000    -0.420000000
H     7.793000000     3.327000000    -0.785000000
H     6.794000000     3.687000000     0.293000000
O     1.719000000     5.529000000    -1.799000000
H     2.196000000     6.096000000    -2.405000000
H     0.940000000     6.032000000    -1.562000000
O     2.109000000     5.293000000     1.373000000
H     1.426000000     4.870000000     1.893000000
H     1.736000000     5.355000000     0.493000000
O     1.438000000     6.820000000     3.884000000
H     1.493000000     5.920000000     3.562000000
H     2.112000000     6.874000000     4.561000000
O     5.403000000    -3.328000000     2.616000000
H     6.008000000    -2.785000000     2.111000000
H     4.602000000    -3.344000000     2.093000000
O     3.861000000     2.913000000    -4.057000000
H     4.338000000     2.460000000    -3.362000000
H     2.973000000     3.010000000    -3.715000000
O     2.722000000    -3.641000000     1.650000000
H     1.857000000    -4.039000000     1.739000000
H     2.660000000    -2.821000000     2.141000000
O    -3.514000000     2.777000000     2.415000000
H    -4.302000000     2.258000000     2.574000000
H    -3.562000000     3.487000000     3.056000000
O     0.164000000    -4.426000000     1.919000000
H    -0.444000000    -3.973000000     2.504000000
H    -0.340000000    -4.577000000     1.119000000
O    -4.462000000    -4.068000000     1.271000000
H    -3.567000000    -3.910000000     0.970000000
H    -5.010000000    -3.559000000     0.673000000
O    -3.110000000     4.436000000     0.159000000
H    -3.596000000     3.836000000    -0.407000000
H    -3.075000000     3.991000000     1.005000000
O    -6.275000000    -5.290000000    -1.587000000
H    -7.026000000    -5.508000000    -1.034000000
H    -6.047000000    -4.395000000    -1.339000000
O    -3.294000000    -3.945000000    -3.968000000
H    -3.459000000    -4.719000000    -3.430000000
H    -3.648000000    -3.217000000    -3.456000000
O    -0.899000000    -4.790000000    -0.902000000
H    -1.253000000    -3.901000000    -0.880000000
H    -1.402000000    -5.232000000    -1.586000000
O     0.917000000    -1.748000000    -4.842000000
H     0.904000000    -1.231000000    -5.648000000
H     1.271000000    -1.153000000    -4.181000000
O    -7.601000000    -0.901000000    -1.318000000
H    -8.468000000    -1.056000000    -1.692000000
H    -7.374000000    -0.014000000    -1.597000000
O    -1.633000000     0.691000000     2.928000000
H    -1.069000000     0.667000000     2.154000000
H    -2.441000000     1.103000000     2.623000000
O     7.370000000     0.880000000     1.201000000
H     7.249000000     1.483000000     0.468000000
H     7.122000000     1.388000000     1.973000000
O    -0.836000000    -2.852000000    -3.190000000
H    -0.264000000    -3.020000000    -3.938000000
H    -1.570000000    -3.455000000    -3.310000000
O    -1.144000000     4.365000000    -2.054000000
H    -1.780000000     4.979000000    -2.422000000
H    -1.473000000     4.179000000    -1.175000000
O    -4.487000000    -1.398000000     2.071000000
H    -4.187000000    -2.304000000     1.999000000
H    -4.310000000    -1.017000000     1.211000000
O    -4.583000000     2.473000000    -0.984000000
H    -4.403000000     1.742000000    -1.576000000
H    -4.941000000     2.062000000    -0.197000000
O     5.445000000     3.137000000     4.635000000
H     5.629000000     3.369000000     5.545000000
H     4.851000000     3.822000000     4.328000000
O     1.176000000     1.393000000     5.837000000
H     1.839000000     1.598000000     5.177000000
H     0.919000000     0.491000000     5.646000000
O    -4.240000000     2.447000000    -4.806000000
H    -4.119000000     2.959000000    -4.007000000
H    -3.687000000     2.882000000    -5.456000000
O    -6.570000000    -0.563000000    -4.697000000
H    -5.979000000    -0.606000000    -5.450000000
H    -5.997000000    -0.664000000    -3.937000000
O    -4.084000000    -5.448000000     3.833000000
H    -3.891000000    -5.104000000     2.961000000
H    -3.851000000    -6.375000000     3.782000000
O    -2.339000000    -0.577000000    -4.424000000
H    -3.044000000    -0.737000000    -5.052000000
H    -1.882000000    -1.415000000    -4.358000000
O     0.923000000    -1.309000000     5.595000000
H     1.011000000    -2.078000000     6.158000000
H     1.450000000    -1.514000000     4.823000000
O     3.467000000     1.337000000     4.123000000
H     3.841000000     2.211000000     4.008000000
H     3.991000000     0.943000000     4.820000000
O    -7.399000000     1.898000000    -2.116000000
H    -6.525000000     2.177000000    -2.387000000
H    -7.975000000     2.194000000    -2.821000000
O     1.421000000     0.263000000    -2.935000000
H     1.067000000     0.170000000    -2.051000000
H     1.158000000     1.142000000    -3.207000000
O     6.026000000     1.379000000    -2.169000000
H     6.165000000     2.021000000    -1.473000000
H     6.863000000     0.921000000    -2.243000000
O     0.010000000     4.235000000     3.287000000
H    -0.582000000     4.980000000     3.385000000
H    -0.415000000     3.526000000     3.770000000
O     1.201000000     3.199000000    -2.793000000
H     1.372000000     4.097000000    -2.508000000
H     0.262000000     3.078000000    -2.655000000
O     4.317000000    -0.908000000    -2.010000000
H     3.446000000    -0.858000000    -2.402000000
H     4.776000000    -0.139000000    -2.346000000
O     1.376000000    -6.448000000    -1.821000000
H     0.763000000    -5.759000000    -1.567000000
H     1.890000000    -6.615000000    -1.031000000
O     2.670000000    -1.323000000     3.543000000
H     3.445000000    -1.181000000     4.086000000
H     2.512000000    -0.475000000     3.127000000
O     5.212000000    -3.197000000    -0.641000000
H     4.733000000    -2.393000000    -0.844000000
H     4.607000000    -3.901000000    -0.872000000
O     4.050000000     5.016000000     3.393000000
H     3.463000000     5.026000000     2.637000000
H     4.529000000     5.842000000     3.335000000
O     1.582000000    -5.673000000     4.167000000
H     1.106000000    -6.482000000     3.980000000
H     1.369000000    -5.095000000     3.434000000
O    -3.987000000    -2.015000000     4.881000000
H    -3.309000000    -1.410000000     5.180000000
H    -4.319000000    -1.623000000     4.073000000
O     4.427000000     5.011000000    -1.110000000
H     3.482000000     5.117000000    -1.007000000
H     4.674000000     4.383000000    -0.431000000
O    -5.851000000     1.291000000     1.562000000
H    -6.653000000     1.435000000     1.059000000
H    -5.878000000     0.363000000     1.795000000
O    -5.804000000    -2.766000000    -0.738000000
H    -6.494000000    -2.111000000    -0.844000000
H    -4.989000000    -2.265000000    -0.785000000
O    -2.071000000    -3.529000000     3.186000000
H    -2.553000000    -2.723000000     3.370000000
H    -2.129000000    -4.034000000     3.997000000
O    -1.938000000    -6.563000000     1.118000000
H    -2.260000000    -7.356000000     0.689000000
H    -1.597000000    -6.025000000     0.404000000
