161
-3028.45968
C    -0.370000000    -0.252000000     1.407000000
H    -0.626000000    -0.566000000     2.415000000
C    -0.919000000    -0.891000000     0.259000000
H    -1.654000000    -1.680000000     0.398000000
C    -0.466000000    -0.517000000    -1.047000000
C    -1.104000000    -1.170000000    -2.276000000
H    -0.405000000    -1.706000000    -2.922000000
H    -1.909000000    -1.815000000    -1.919000000
H    -1.498000000    -0.366000000    -2.902000000
C     0.597000000     0.338000000    -1.113000000
H     0.897000000     0.659000000    -2.108000000
C     1.129000000     0.941000000     0.020000000
H     1.846000000     1.745000000    -0.131000000
C     0.668000000     0.679000000     1.280000000
C     1.131000000     1.371000000     2.567000000
O     1.934000000     2.302000000     2.475000000
O     0.751000000     0.931000000     3.594000000
O    -3.201000000    -0.624000000     3.538000000
H    -2.839000000    -0.381000000     4.390000000
H    -4.106000000    -0.313000000     3.565000000
O    -3.716000000    -2.089000000    -4.588000000
H    -3.318000000    -2.911000000    -4.303000000
H    -4.602000000    -2.333000000    -4.856000000
O     4.059000000     3.459000000     1.262000000
H     4.682000000     3.754000000     1.927000000
H     3.288000000     3.188000000     1.760000000
O     3.370000000     3.514000000    -2.924000000
H     3.052000000     4.376000000    -2.656000000
H     4.188000000     3.398000000    -2.440000000
O    -1.545000000     2.810000000     3.301000000
H    -0.910000000     2.268000000     3.770000000
H    -1.972000000     3.326000000     3.986000000
O     0.539000000    -5.557000000    -3.017000000
H     0.853000000    -5.711000000    -2.126000000
H     0.214000000    -6.408000000    -3.307000000
O    -1.374000000    -0.837000000    -5.532000000
H    -2.130000000    -1.414000000    -5.428000000
H    -1.648000000    -0.199000000    -6.191000000
O     1.103000000     6.051000000    -2.578000000
H     0.413000000     5.905000000    -1.931000000
H     0.995000000     6.966000000    -2.840000000
O    -5.127000000    -3.395000000    -0.201000000
H    -4.243000000    -3.314000000     0.157000000
H    -5.186000000    -2.697000000    -0.853000000
O    -1.533000000    -0.669000000     6.008000000
H    -0.873000000    -0.174000000     6.494000000
H    -1.042000000    -1.374000000     5.586000000
O     1.009000000     3.770000000     5.147000000
H     1.198000000     3.726000000     4.209000000
H     0.837000000     2.863000000     5.400000000
O     4.262000000     3.656000000     6.919000000
H     4.750000000     4.383000000     6.532000000
H     3.794000000     3.262000000     6.183000000
O     1.373000000     1.548000000    -6.676000000
H     1.516000000     2.362000000    -6.192000000
H     1.411000000     0.863000000    -6.009000000
O    -4.633000000    -1.072000000    -1.854000000
H    -4.428000000    -0.146000000    -1.726000000
H    -4.296000000    -1.274000000    -2.727000000
O     3.742000000    -0.565000000    -1.874000000
H     4.302000000     0.126000000    -1.520000000
H     2.860000000    -0.328000000    -1.589000000
O    -3.424000000     4.148000000    -0.326000000
H    -3.130000000     3.305000000     0.018000000
H    -2.617000000     4.611000000    -0.549000000
O    -0.105000000     5.635000000     6.549000000
H     0.001000000     5.250000000     7.419000000
H     0.433000000     5.087000000     5.978000000
O    -0.282000000    -2.973000000     3.435000000
H    -1.047000000    -3.236000000     3.947000000
H     0.289000000    -2.534000000     4.066000000
O     2.071000000    -2.864000000     7.077000000
H     1.594000000    -2.423000000     6.374000000
H     2.661000000    -2.194000000     7.422000000
O    -5.473000000     1.482000000     1.597000000
H    -4.560000000     1.736000000     1.735000000
H    -5.968000000     2.292000000     1.721000000
O     5.591000000     1.461000000     0.328000000
H     4.930000000     2.097000000     0.604000000
H     5.861000000     1.759000000    -0.541000000
O    -2.157000000    -4.551000000    -3.924000000
H    -1.297000000    -4.130000000    -3.912000000
H    -2.006000000    -5.415000000    -3.540000000
O     1.612000000     3.913000000    -5.362000000
H     1.927000000     3.762000000    -4.471000000
H     1.019000000     4.660000000    -5.283000000
O     3.059000000     6.259000000     0.678000000
H     3.274000000     5.398000000     0.320000000
H     3.684000000     6.854000000     0.262000000
O    -2.607000000     1.643000000     1.112000000
H    -2.152000000     0.828000000     0.902000000
H    -2.059000000     2.059000000     1.777000000
O    -6.188000000     1.639000000    -3.511000000
H    -6.813000000     2.083000000    -2.938000000
H    -5.432000000     1.463000000    -2.950000000
O     1.169000000    -0.482000000    -4.773000000
H     0.226000000    -0.627000000    -4.708000000
H     1.516000000    -1.305000000    -5.116000000
O     3.287000000     1.945000000     4.763000000
H     2.511000000     1.793000000     4.223000000
H     3.710000000     1.088000000     4.820000000
O     1.480000000    -1.405000000     4.751000000
H     1.139000000    -0.519000000     4.630000000
H     2.363000000    -1.375000000     4.383000000
O     0.352000000     0.538000000     7.711000000
H     0.112000000     0.411000000     8.629000000
H     1.270000000     0.807000000     7.739000000
O     0.711000000    -3.933000000    -5.193000000
H     0.611000000    -4.355000000    -4.339000000
H     1.657000000    -3.872000000    -5.321000000
O     4.648000000     2.195000000    -5.301000000
H     4.229000000     2.727000000    -4.625000000
H     5.586000000     2.315000000    -5.155000000
O     1.190000000    -5.310000000     2.114000000
H     1.490000000    -4.534000000     2.586000000
H     0.594000000    -4.970000000     1.447000000
O    -3.955000000    -6.141000000     1.581000000
H    -3.567000000    -5.266000000     1.565000000
H    -3.850000000    -6.466000000     0.686000000
O    -3.877000000     1.398000000    -1.545000000
H    -3.958000000     1.597000000    -0.612000000
H    -3.087000000     1.863000000    -1.821000000
O    -1.928000000     3.367000000    -3.789000000
H    -1.445000000     3.761000000    -3.063000000
H    -2.779000000     3.805000000    -3.776000000
O    -0.551000000    -4.739000000    -7.581000000
H    -0.182000000    -4.022000000    -8.097000000
H    -0.412000000    -4.476000000    -6.671000000
O    -2.999000000    -3.276000000     1.764000000
H    -2.948000000    -2.355000000     2.021000000
H    -2.821000000    -3.760000000     2.570000000
O     5.340000000     3.739000000     3.807000000
H     5.449000000     4.351000000     4.536000000
H     4.536000000     3.262000000     4.013000000
O    -0.512000000    -4.328000000     0.320000000
H    -0.916000000    -4.053000000     1.144000000
H    -0.335000000    -3.510000000    -0.144000000
O     3.583000000    -1.478000000     2.795000000
H     2.986000000    -1.190000000     2.104000000
H     3.775000000    -2.391000000     2.581000000
O    -4.215000000    -6.674000000    -1.085000000
H    -4.163000000    -5.720000000    -1.140000000
H    -4.113000000    -6.973000000    -1.989000000
O    -1.151000000     4.868000000     1.126000000
H    -0.914000000     5.793000000     1.198000000
H    -1.379000000     4.609000000     2.018000000
O    -1.920000000     2.361000000    -6.418000000
H    -1.496000000     3.219000000    -6.419000000
H    -2.154000000     2.211000000    -5.502000000
O    -0.497000000     3.567000000    -1.296000000
H    -0.536000000     4.025000000    -0.456000000
H     0.426000000     3.333000000    -1.398000000
O     4.043000000    -1.439000000    -4.626000000
H     3.662000000    -0.614000000    -4.928000000
H     3.654000000    -1.581000000    -3.764000000
O     5.062000000    -0.342000000     4.704000000
H     4.727000000    -0.696000000     3.880000000
H     5.968000000    -0.650000000     4.745000000
O     6.970000000     3.530000000     1.566000000
H     6.606000000     2.800000000     1.065000000
H     6.403000000     3.600000000     2.334000000
