161
-3021.20850
C     0.047000000    -0.451000000     1.456000000
H    -0.003000000    -0.773000000     2.493000000
C    -0.797000000    -0.936000000     0.416000000
H    -1.603000000    -1.635000000     0.620000000
C    -0.659000000    -0.532000000    -0.914000000
C    -1.641000000    -0.984000000    -2.056000000
H    -1.358000000    -1.948000000    -2.483000000
H    -2.647000000    -1.173000000    -1.677000000
H    -1.687000000    -0.223000000    -2.839000000
C     0.217000000     0.528000000    -1.147000000
H     0.278000000     0.852000000    -2.183000000
C     1.102000000     0.991000000    -0.166000000
H     1.791000000     1.794000000    -0.415000000
C     0.951000000     0.532000000     1.152000000
C     1.843000000     1.101000000     2.259000000
O     2.724000000     1.957000000     2.104000000
O     1.446000000     0.902000000     3.382000000
O    -1.291000000     2.579000000     1.967000000
H    -0.619000000     1.898000000     1.991000000
H    -1.138000000     3.094000000     2.758000000
O     5.601000000     2.719000000     2.770000000
H     5.238000000     3.409000000     3.325000000
H     4.835000000     2.263000000     2.421000000
O    -0.407000000     4.348000000     3.799000000
H     0.521000000     4.203000000     3.617000000
H    -0.422000000     5.128000000     4.355000000
O     2.179000000     6.773000000     1.407000000
H     2.375000000     6.898000000     2.335000000
H     1.368000000     6.264000000     1.400000000
O    -4.945000000     0.588000000     1.385000000
H    -5.138000000     0.697000000     2.316000000
H    -4.505000000     1.401000000     1.135000000
O     7.790000000     4.106000000     0.992000000
H     6.995000000     3.724000000     1.364000000
H     8.245000000     3.366000000     0.589000000
O     5.340000000     2.653000000    -1.278000000
H     4.711000000     2.148000000    -1.794000000
H     4.804000000     3.122000000    -0.639000000
O    -1.703000000     1.324000000     5.446000000
H    -2.018000000     0.939000000     6.264000000
H    -0.755000000     1.392000000     5.563000000
O     0.079000000    -3.655000000     1.505000000
H     0.701000000    -4.383000000     1.515000000
H     0.583000000    -2.915000000     1.166000000
O     0.813000000    -3.495000000     5.584000000
H     0.569000000    -3.440000000     6.508000000
H     1.054000000    -2.600000000     5.346000000
O    -4.552000000    -1.952000000     0.353000000
H    -4.256000000    -1.325000000     1.013000000
H    -4.736000000    -1.417000000    -0.420000000
O     4.733000000     5.354000000     4.283000000
H     4.008000000     5.959000000     4.122000000
H     4.903000000     5.428000000     5.222000000
O     1.796000000     1.537000000    -4.710000000
H     1.402000000     0.664000000    -4.711000000
H     2.455000000     1.504000000    -5.403000000
O    -4.709000000    -1.446000000    -5.462000000
H    -3.892000000    -1.561000000    -5.947000000
H    -5.143000000    -0.711000000    -5.894000000
O     2.819000000     0.108000000     7.439000000
H     3.308000000     0.059000000     8.260000000
H     3.217000000    -0.563000000     6.883000000
O    -3.544000000     2.902000000     0.450000000
H    -4.015000000     3.539000000     0.987000000
H    -2.653000000     2.906000000     0.801000000
O     3.606000000     3.884000000     0.375000000
H     3.142000000     3.265000000     0.939000000
H     3.041000000     4.657000000     0.355000000
O    -0.548000000    -5.792000000    -2.338000000
H    -1.257000000    -6.048000000    -2.928000000
H    -0.416000000    -6.556000000    -1.777000000
O    -1.932000000    -3.025000000    -4.759000000
H    -2.211000000    -3.870000000    -5.113000000
H    -2.692000000    -2.709000000    -4.269000000
O     7.386000000     2.481000000     4.889000000
H     8.040000000     1.787000000     4.807000000
H     7.060000000     2.609000000     3.998000000
O    -1.775000000     4.054000000    -2.224000000
H    -1.665000000     3.752000000    -1.322000000
H    -1.741000000     3.255000000    -2.750000000
O    -7.028000000     0.318000000    -3.060000000
H    -7.026000000    -0.638000000    -3.023000000
H    -6.149000000     0.570000000    -2.776000000
O     0.457000000    -0.926000000    -5.088000000
H    -0.030000000    -1.609000000    -4.627000000
H     0.376000000    -1.157000000    -6.014000000
O     2.360000000     4.017000000     3.875000000
H     2.507000000     3.152000000     3.491000000
H     3.094000000     4.546000000     3.562000000
O    -4.236000000     1.686000000    -6.615000000
H    -3.928000000     2.447000000    -6.123000000
H    -5.171000000     1.845000000    -6.743000000
O    -1.931000000    -4.621000000    -0.171000000
H    -1.624000000    -3.850000000     0.307000000
H    -1.288000000    -4.741000000    -0.870000000
O     0.891000000     1.420000000     5.960000000
H     1.003000000     1.196000000     5.037000000
H     1.455000000     0.803000000     6.427000000
O    -4.587000000     1.442000000    -1.660000000
H    -4.409000000     2.076000000    -2.355000000
H    -4.303000000     1.881000000    -0.858000000
O     3.514000000     0.973000000    -2.470000000
H     3.747000000     0.089000000    -2.755000000
H     2.882000000     1.276000000    -3.122000000
O    -2.040000000    -3.509000000     3.398000000
H    -2.150000000    -2.592000000     3.647000000
H    -1.212000000    -3.529000000     2.918000000
O     6.209000000    -1.968000000     3.662000000
H     5.341000000    -1.789000000     3.302000000
H     6.117000000    -2.813000000     4.102000000
O     3.465000000    -1.780000000     2.285000000
H     2.906000000    -1.912000000     1.520000000
H     4.252000000    -1.360000000     1.938000000
O    -4.763000000    -4.605000000     2.199000000
H    -3.928000000    -4.170000000     2.374000000
H    -5.335000000    -3.907000000     1.881000000
O     1.051000000     5.493000000    -1.340000000
H     0.658000000     5.727000000    -0.499000000
H     0.356000000     5.033000000    -1.810000000
O    -2.731000000    -0.969000000     3.918000000
H    -2.314000000    -0.127000000     4.104000000
H    -3.643000000    -0.747000000     3.728000000
O     2.253000000    -2.363000000    -0.006000000
H     1.761000000    -1.959000000    -0.721000000
H     2.788000000    -3.032000000    -0.431000000
O     3.878000000    -4.552000000     2.376000000
H     3.543000000    -3.668000000     2.223000000
H     3.128000000    -5.123000000     2.210000000
O    -7.514000000    -0.678000000     0.651000000
H    -7.563000000    -1.424000000     1.247000000
H    -6.636000000    -0.320000000     0.786000000
O     0.692000000    -3.857000000    -3.529000000
H     0.259000000    -4.535000000    -3.009000000
H    -0.026000000    -3.347000000    -3.904000000
O     3.944000000    -1.637000000    -2.767000000
H     3.923000000    -1.768000000    -3.714000000
H     3.793000000    -2.509000000    -2.401000000
O    -6.661000000    -2.333000000    -3.606000000
H    -6.102000000    -2.020000000    -4.318000000
H    -6.654000000    -3.286000000    -3.699000000
O    -4.489000000    -4.510000000    -1.066000000
H    -3.629000000    -4.749000000    -0.721000000
H    -4.646000000    -3.628000000    -0.731000000
O    -0.389000000     5.631000000     1.084000000
H    -0.875000000     4.886000000     1.439000000
H    -0.840000000     6.399000000     1.434000000
O    -7.500000000    -4.106000000    -1.411000000
H    -6.558000000    -4.133000000    -1.244000000
H    -7.649000000    -3.246000000    -1.804000000
O     1.980000000    -1.310000000     4.854000000
H     1.916000000    -0.388000000     4.603000000
H     2.319000000    -1.748000000     4.074000000
O     4.770000000    -0.003000000     0.312000000
H     4.787000000     0.922000000     0.560000000
H     4.322000000    -0.016000000    -0.534000000
O     4.071000000     2.565000000     6.944000000
H     3.395000000     3.154000000     6.610000000
H     3.691000000     1.690000000     6.856000000
O     1.101000000     4.001000000     6.674000000
H     0.979000000     3.073000000     6.475000000
H     1.348000000     4.395000000     5.837000000
