161
-3081.12982
C     0.113000000    -0.859000000     1.217000000
H     0.213000000    -1.503000000     2.087000000
C    -0.949000000    -0.911000000     0.356000000
H    -1.638000000    -1.735000000     0.521000000
C    -1.002000000    -0.044000000    -0.736000000
C    -2.033000000    -0.163000000    -1.762000000
H    -2.716000000    -0.943000000    -1.418000000
H    -2.611000000     0.762000000    -1.809000000
H    -1.616000000    -0.261000000    -2.766000000
C    -0.008000000     0.953000000    -0.874000000
H    -0.070000000     1.608000000    -1.739000000
C     1.107000000     1.012000000    -0.087000000
H     1.907000000     1.697000000    -0.357000000
C     1.188000000     0.081000000     0.978000000
C     2.383000000     0.095000000     1.901000000
O     3.303000000     0.920000000     1.737000000
O     2.434000000    -0.705000000     2.757000000
O     0.053000000    -4.847000000    -2.815000000
H    -0.361000000    -4.191000000    -3.376000000
H     0.488000000    -4.337000000    -2.132000000
O     5.523000000    -0.553000000     1.484000000
H     4.799000000     0.067000000     1.576000000
H     6.088000000    -0.375000000     2.236000000
O     2.870000000    -4.961000000     4.692000000
H     2.182000000    -5.250000000     4.092000000
H     2.400000000    -4.682000000     5.478000000
O     5.267000000    -3.782000000     2.468000000
H     5.395000000    -3.835000000     1.521000000
H     6.073000000    -4.142000000     2.839000000
O    -3.168000000     5.994000000    -0.833000000
H    -2.909000000     5.744000000     0.054000000
H    -3.048000000     5.198000000    -1.350000000
O     0.818000000     1.673000000    -4.494000000
H     0.941000000     1.899000000    -5.416000000
H     0.620000000     2.507000000    -4.068000000
O     1.596000000     3.628000000     1.972000000
H     2.447000000     4.062000000     1.900000000
H     1.801000000     2.694000000     1.951000000
O     0.302000000    -3.053000000    -4.970000000
H     0.707000000    -2.534000000    -4.275000000
H     0.113000000    -2.420000000    -5.663000000
O    -5.146000000    -1.915000000    -2.407000000
H    -5.711000000    -2.391000000    -1.798000000
H    -5.035000000    -1.053000000    -2.006000000
O    -4.981000000    -2.469000000    -5.491000000
H    -4.069000000    -2.189000000    -5.420000000
H    -5.389000000    -2.162000000    -4.681000000
O     4.162000000    -1.801000000     4.277000000
H     4.775000000    -2.414000000     3.872000000
H     3.821000000    -1.285000000     3.546000000
O     0.077000000     4.265000000    -3.297000000
H    -0.841000000     4.186000000    -3.037000000
H     0.485000000     4.762000000    -2.589000000
O     4.985000000    -1.769000000    -0.899000000
H     4.714000000    -2.686000000    -0.855000000
H     5.160000000    -1.527000000     0.011000000
O    -6.601000000     0.775000000    -4.151000000
H    -6.363000000     1.312000000    -3.396000000
H    -7.351000000     0.260000000    -3.852000000
O     2.721000000    -1.539000000     6.803000000
H     3.394000000    -1.975000000     6.281000000
H     2.406000000    -2.215000000     7.403000000
O     3.419000000     3.887000000     4.635000000
H     2.507000000     3.771000000     4.901000000
H     3.717000000     3.005000000     4.412000000
O    -5.867000000     2.474000000    -2.152000000
H    -5.772000000     1.807000000    -1.472000000
H    -6.038000000     3.284000000    -1.670000000
O    -3.804000000     2.628000000    -4.604000000
H    -3.398000000     3.494000000    -4.630000000
H    -4.742000000     2.805000000    -4.542000000
O     4.507000000     0.799000000    -1.624000000
H     3.566000000     0.839000000    -1.795000000
H     4.669000000    -0.114000000    -1.385000000
O     7.006000000     4.096000000     0.573000000
H     6.697000000     4.850000000     0.071000000
H     6.213000000     3.719000000     0.954000000
O     7.035000000     0.130000000     3.646000000
H     7.027000000    -0.472000000     4.390000000
H     7.114000000     0.998000000     4.040000000
O    -3.163000000     3.334000000    -1.998000000
H    -3.492000000     2.657000000    -2.590000000
H    -3.482000000     3.073000000    -1.134000000
O    -1.189000000    -4.333000000     3.208000000
H    -1.733000000    -3.664000000     2.793000000
H    -1.784000000    -5.069000000     3.352000000
O    -1.864000000     0.500000000     4.376000000
H    -1.100000000    -0.052000000     4.544000000
H    -1.628000000     1.005000000     3.599000000
O    -0.930000000    -1.461000000    -6.651000000
H    -0.438000000    -1.052000000    -7.364000000
H    -1.438000000    -0.744000000    -6.269000000
O    -0.570000000    -3.359000000     5.736000000
H    -0.092000000    -2.550000000     5.556000000
H    -0.861000000    -3.662000000     4.876000000
O     0.837000000     5.606000000    -0.977000000
H     0.596000000     6.519000000    -0.820000000
H     1.792000000     5.597000000    -0.919000000
O    -0.911000000     4.045000000     0.817000000
H    -0.458000000     4.480000000     0.095000000
H    -0.214000000     3.803000000     1.426000000
O     3.557000000     5.259000000    -0.451000000
H     4.380000000     5.595000000    -0.805000000
H     3.809000000     4.478000000     0.042000000
O     4.690000000     2.872000000     0.682000000
H     4.400000000     2.232000000     1.332000000
H     4.740000000     2.377000000    -0.136000000
O    -5.656000000     0.348000000    -0.309000000
H    -6.451000000    -0.030000000     0.067000000
H    -4.989000000     0.223000000     0.366000000
O    -4.167000000    -0.206000000     2.045000000
H    -3.535000000     0.513000000     2.023000000
H    -3.634000000    -0.989000000     2.182000000
O     3.480000000     5.639000000     2.700000000
H     3.301000000     5.013000000     3.402000000
H     4.392000000     5.474000000     2.459000000
O     1.474000000    -4.100000000    -0.306000000
H     1.038000000    -4.890000000     0.014000000
H     1.499000000    -3.517000000     0.452000000
O    -4.172000000    -4.200000000     0.090000000
H    -3.821000000    -4.346000000    -0.789000000
H    -5.042000000    -3.831000000    -0.058000000
O    -2.109000000    -4.211000000    -4.611000000
H    -1.928000000    -5.121000000    -4.847000000
H    -1.453000000    -3.705000000    -5.089000000
O     0.992000000    -0.395000000     4.919000000
H     1.510000000    -0.507000000     4.122000000
H     1.562000000    -0.709000000     5.621000000
O     2.461000000    -3.205000000     2.085000000
H     2.446000000    -2.260000000     2.238000000
H     3.352000000    -3.470000000     2.316000000
O     1.000000000    -5.953000000     2.903000000
H     0.319000000    -5.297000000     3.052000000
H     0.897000000    -6.200000000     1.984000000
O     1.103000000    -2.061000000    -2.110000000
H     0.611000000    -1.713000000    -1.366000000
H     1.714000000    -2.687000000    -1.721000000
O    -3.759000000    -4.177000000    -2.602000000
H    -4.079000000    -3.284000000    -2.733000000
H    -3.115000000    -4.305000000    -3.299000000
O     3.595000000     1.238000000     4.410000000
H     3.383000000     0.711000000     3.639000000
H     4.229000000     0.709000000     4.894000000
O     1.974000000     4.492000000    -5.381000000
H     1.902000000     5.436000000    -5.237000000
H     1.239000000     4.119000000    -4.894000000
O    -1.995000000     0.638000000    -5.120000000
H    -2.604000000     1.324000000    -4.844000000
H    -1.149000000     0.913000000    -4.766000000
O    -3.594000000    -2.982000000     2.529000000
H    -4.033000000    -3.584000000     3.130000000
H    -3.741000000    -3.359000000     1.662000000
O     0.924000000     2.548000000     5.742000000
H     0.838000000     2.316000000     6.666000000
H     1.231000000     1.745000000     5.320000000
O    -2.184000000     1.811000000     1.848000000
H    -1.774000000     2.251000000     1.103000000
H    -2.835000000     2.436000000     2.167000000
O     2.407000000    -0.102000000    -3.326000000
H     1.913000000    -0.871000000    -3.042000000
H     1.746000000     0.483000000    -3.697000000
