161
-3044.21119
C     0.448000000     0.055000000     1.375000000
H     0.611000000     0.146000000     2.446000000
C    -0.776000000    -0.483000000     0.911000000
H    -1.559000000    -0.793000000     1.598000000
C    -1.047000000    -0.505000000    -0.432000000
C    -2.274000000    -1.132000000    -0.897000000
H    -3.137000000    -0.916000000    -0.264000000
H    -2.512000000    -0.790000000    -1.907000000
H    -2.142000000    -2.215000000    -0.858000000
C    -0.159000000     0.042000000    -1.331000000
H    -0.372000000    -0.024000000    -2.395000000
C     1.016000000     0.647000000    -0.841000000
H     1.832000000     0.945000000    -1.495000000
C     1.321000000     0.610000000     0.504000000
C     2.607000000     1.251000000     1.050000000
O     3.469000000     1.580000000     0.271000000
O     2.666000000     1.589000000     2.265000000
O     4.257000000     3.640000000     3.291000000
H     3.644000000     2.956000000     3.024000000
H     5.027000000     3.164000000     3.601000000
O     6.496000000    -0.899000000    -2.334000000
H     7.140000000    -0.194000000    -2.400000000
H     5.695000000    -0.526000000    -2.702000000
O     1.522000000     6.007000000     0.025000000
H     2.158000000     5.295000000     0.087000000
H     0.918000000     5.853000000     0.752000000
O    -0.685000000     3.791000000    -1.425000000
H    -0.846000000     4.222000000    -2.264000000
H     0.267000000     3.799000000    -1.330000000
O     4.473000000    -0.006000000    -5.509000000
H     3.952000000     0.222000000    -4.739000000
H     4.296000000     0.696000000    -6.135000000
O     7.026000000     3.065000000     0.100000000
H     6.412000000     2.350000000     0.268000000
H     6.577000000     3.847000000     0.419000000
O    -0.025000000    -4.911000000    -2.567000000
H     0.534000000    -5.675000000    -2.418000000
H    -0.889000000    -5.183000000    -2.258000000
O    -1.694000000    -2.423000000    -6.409000000
H    -0.783000000    -2.134000000    -6.354000000
H    -1.846000000    -2.559000000    -7.344000000
O    -7.086000000    -1.878000000     0.907000000
H    -7.875000000    -1.336000000     0.904000000
H    -6.604000000    -1.594000000     1.684000000
O    -6.516000000     0.418000000    -1.488000000
H    -7.271000000     0.809000000    -1.048000000
H    -6.827000000    -0.439000000    -1.780000000
O     5.523000000     0.990000000     3.909000000
H     4.613000000     0.751000000     3.736000000
H     5.765000000     0.474000000     4.678000000
O    -2.714000000     2.981000000    -6.029000000
H    -3.238000000     3.531000000    -5.446000000
H    -2.561000000     2.179000000    -5.527000000
O     4.467000000     1.219000000    -2.372000000
H     4.793000000     2.111000000    -2.494000000
H     4.319000000     1.145000000    -1.429000000
O     8.409000000    -0.259000000     0.415000000
H     7.477000000    -0.139000000     0.602000000
H     8.555000000     0.227000000    -0.396000000
O    -2.393000000     1.383000000    -3.399000000
H    -2.916000000     1.744000000    -2.683000000
H    -1.489000000     1.591000000    -3.164000000
O    -0.105000000    -4.093000000     3.295000000
H    -0.462000000    -4.355000000     2.447000000
H    -0.696000000    -3.406000000     3.602000000
O    -4.580000000     0.998000000     0.973000000
H    -5.390000000     1.470000000     0.779000000
H    -3.948000000     1.336000000     0.338000000
O     3.711000000    -3.156000000    -4.377000000
H     3.349000000    -2.648000000    -5.103000000
H     3.151000000    -2.940000000    -3.631000000
O     1.083000000    -1.756000000    -6.012000000
H     0.840000000    -1.168000000    -6.728000000
H     1.619000000    -2.431000000    -6.428000000
O    -3.846000000    -3.466000000     1.158000000
H    -4.199000000    -3.085000000     0.354000000
H    -3.773000000    -2.726000000     1.761000000
O     3.244000000    -3.794000000    -0.129000000
H     2.824000000    -3.441000000    -0.913000000
H     4.149000000    -3.488000000    -0.183000000
O     2.083000000    -2.705000000     4.093000000
H     2.764000000    -3.357000000     3.928000000
H     1.288000000    -3.091000000     3.724000000
O     3.407000000     4.216000000     0.068000000
H     4.324000000     4.477000000    -0.007000000
H     3.439000000     3.318000000     0.398000000
O     1.984000000     3.588000000    -3.339000000
H     2.669000000     3.233000000    -2.773000000
H     2.396000000     4.334000000    -3.775000000
O     3.496000000     6.575000000     2.724000000
H     3.553000000     5.638000000     2.913000000
H     3.515000000     6.628000000     1.768000000
O    -2.517000000    -5.677000000    -1.775000000
H    -2.944000000    -5.009000000    -2.311000000
H    -3.237000000    -6.221000000    -1.454000000
O    -4.246000000     2.035000000    -1.612000000
H    -4.820000000     1.274000000    -1.524000000
H    -4.844000000     2.782000000    -1.647000000
O    -3.331000000     2.924000000     2.819000000
H    -3.600000000     3.651000000     2.258000000
H    -2.540000000     2.581000000     2.403000000
O     2.124000000     4.283000000     5.416000000
H     1.686000000     3.924000000     4.644000000
H     2.963000000     4.605000000     5.088000000
O    -5.516000000    -3.440000000    -1.140000000
H    -6.178000000    -3.298000000    -0.464000000
H    -5.986000000    -3.880000000    -1.848000000
O    -2.973000000    -4.948000000    -5.492000000
H    -2.954000000    -4.678000000    -4.574000000
H    -2.678000000    -4.176000000    -5.975000000
O     5.445000000     3.536000000    -2.955000000
H     5.245000000     4.431000000    -3.229000000
H     6.384000000     3.546000000    -2.772000000
O     2.645000000     0.057000000     4.463000000
H     2.622000000     0.559000000     3.648000000
H     2.728000000    -0.853000000     4.181000000
O    -1.689000000     1.882000000     6.675000000
H    -1.437000000     1.062000000     6.251000000
H    -1.564000000     2.549000000     6.001000000
O    -5.970000000    -1.540000000    -5.489000000
H    -5.124000000    -1.354000000    -5.082000000
H    -6.457000000    -2.021000000    -4.820000000
O     3.864000000    -1.697000000     2.182000000
H     3.778000000    -1.822000000     1.237000000
H     4.233000000    -2.521000000     2.500000000
O     0.752000000     3.295000000     3.302000000
H     1.392000000     2.712000000     2.892000000
H     0.328000000     2.755000000     3.969000000
O     1.771000000    -2.817000000    -2.287000000
H     1.227000000    -2.066000000    -2.048000000
H     1.165000000    -3.557000000    -2.298000000
O    -0.186000000     5.581000000     2.113000000
H     0.160000000     6.018000000     2.891000000
H    -0.261000000     4.662000000     2.369000000
O    -3.762000000    -3.484000000    -3.059000000
H    -3.536000000    -2.597000000    -3.340000000
H    -4.430000000    -3.358000000    -2.384000000
O     5.797000000     0.688000000     1.096000000
H     4.919000000     0.938000000     0.808000000
H     5.808000000     0.887000000     2.032000000
O    -4.000000000    -1.004000000     2.847000000
H    -4.372000000    -0.261000000     2.372000000
H    -4.505000000    -1.047000000     3.659000000
O     1.518000000     2.820000000    -6.281000000
H     1.328000000     2.216000000    -5.564000000
H     0.931000000     3.561000000    -6.132000000
O    -1.411000000    -4.746000000     0.928000000
H    -1.483000000    -4.855000000    -0.020000000
H    -2.271000000    -4.426000000     1.199000000
O    -0.099000000    -0.229000000     5.364000000
H     0.080000000    -0.148000000     6.301000000
H     0.761000000    -0.369000000     4.968000000
O    -3.310000000    -1.226000000    -4.522000000
H    -2.773000000    -1.619000000    -5.211000000
H    -2.737000000    -0.578000000    -4.113000000
O    -1.767000000    -1.968000000     4.079000000
H    -2.540000000    -1.706000000     3.579000000
H    -1.461000000    -1.159000000     4.489000000
O    -1.329000000     2.345000000     1.155000000
H    -1.407000000     2.756000000     0.294000000
H    -0.777000000     1.577000000     1.005000000
