161
-3067.61705
C     1.344000000    -0.527000000     0.433000000
H     2.300000000    -0.941000000     0.746000000
C     0.235000000    -1.333000000     0.266000000
H     0.272000000    -2.338000000     0.677000000
C    -0.975000000    -0.740000000    -0.157000000
C    -2.216000000    -1.517000000    -0.328000000
H    -2.182000000    -2.319000000     0.412000000
H    -3.133000000    -0.935000000    -0.214000000
H    -2.232000000    -1.809000000    -1.380000000
C    -1.110000000     0.611000000    -0.358000000
H    -2.062000000     1.060000000    -0.629000000
C     0.026000000     1.461000000    -0.255000000
H     0.042000000     2.514000000    -0.523000000
C     1.263000000     0.872000000     0.181000000
C     2.469000000     1.773000000     0.397000000
O     2.574000000     2.847000000    -0.233000000
O     3.381000000     1.316000000     0.959000000
O     8.338000000     1.114000000     1.552000000
H     7.432000000     1.351000000     1.750000000
H     8.363000000     1.038000000     0.598000000
O    -3.011000000     3.572000000     1.503000000
H    -3.471000000     4.389000000     1.310000000
H    -3.384000000     2.936000000     0.892000000
O     5.304000000    -0.380000000    -2.553000000
H     5.993000000    -0.951000000    -2.892000000
H     5.542000000     0.493000000    -2.865000000
O    -1.401000000    -4.845000000    -0.092000000
H    -1.329000000    -4.271000000    -0.855000000
H    -0.517000000    -4.867000000     0.275000000
O     1.827000000    -4.989000000    -0.199000000
H     2.536000000    -4.450000000    -0.550000000
H     1.879000000    -4.865000000     0.749000000
O    -2.156000000     0.703000000    -4.569000000
H    -1.387000000     0.591000000    -4.010000000
H    -1.796000000     0.862000000    -5.442000000
O     0.648000000     6.309000000     1.409000000
H     1.286000000     6.932000000     1.757000000
H    -0.127000000     6.838000000     1.222000000
O    -4.331000000     2.269000000    -0.441000000
H    -4.597000000     1.394000000    -0.720000000
H    -5.155000000     2.739000000    -0.310000000
O     4.984000000    -1.231000000     0.289000000
H     4.624000000    -0.537000000     0.841000000
H     5.056000000    -0.833000000    -0.578000000
O     3.692000000    -3.111000000     3.215000000
H     3.455000000    -2.209000000     2.998000000
H     4.642000000    -3.142000000     3.102000000
O     3.674000000     2.392000000     5.040000000
H     4.455000000     1.852000000     4.919000000
H     3.574000000     2.859000000     4.210000000
O    -5.639000000    -0.140000000    -1.169000000
H    -5.740000000    -0.372000000    -2.092000000
H    -6.026000000    -0.876000000    -0.694000000
O     2.929000000     2.177000000    -2.902000000
H     3.805000000     1.804000000    -3.001000000
H     2.907000000     2.502000000    -2.002000000
O     0.123000000     0.721000000    -3.184000000
H     1.039000000     0.936000000    -3.357000000
H    -0.019000000     0.988000000    -2.275000000
O     1.489000000     5.107000000    -1.160000000
H     1.961000000     4.346000000    -0.820000000
H     1.345000000     5.661000000    -0.392000000
O     6.049000000    -3.483000000     1.380000000
H     6.854000000    -3.708000000     0.914000000
H     5.779000000    -2.646000000     1.001000000
O    -3.328000000    -4.032000000     5.109000000
H    -4.262000000    -4.004000000     5.315000000
H    -3.280000000    -3.795000000     4.183000000
O     6.313000000     1.804000000     5.097000000
H     7.214000000     1.854000000     5.416000000
H     6.387000000     1.926000000     4.151000000
O     0.152000000    -0.050000000     4.075000000
H     0.350000000     0.779000000     4.512000000
H    -0.746000000    -0.251000000     4.338000000
O     5.742000000     2.055000000    -3.529000000
H     6.211000000     2.221000000    -4.347000000
H     6.043000000     2.743000000    -2.936000000
O    -3.086000000    -0.297000000     2.288000000
H    -2.349000000    -0.040000000     1.733000000
H    -3.655000000     0.473000000     2.301000000
O     4.414000000     4.780000000    -4.297000000
H     5.052000000     5.399000000    -4.653000000
H     4.792000000     4.500000000    -3.463000000
O     2.977000000    -0.268000000     3.204000000
H     2.045000000    -0.125000000     3.367000000
H     3.130000000     0.114000000     2.339000000
O     0.700000000     6.132000000    -3.506000000
H     0.719000000     5.659000000    -2.674000000
H    -0.183000000     5.982000000    -3.846000000
O     0.705000000    -2.368000000    -3.154000000
H     0.718000000    -1.722000000    -2.448000000
H     0.614000000    -1.849000000    -3.953000000
O    -1.740000000     5.337000000    -4.572000000
H    -1.735000000     4.850000000    -5.396000000
H    -1.841000000     4.666000000    -3.897000000
O     3.889000000    -3.433000000    -1.186000000
H     4.544000000    -4.114000000    -1.342000000
H     4.377000000    -2.723000000    -0.768000000
O    -5.505000000     1.143000000     2.059000000
H    -6.325000000     1.294000000     2.529000000
H    -5.391000000     1.924000000     1.518000000
O     6.296000000     4.288000000    -1.866000000
H     6.930000000     5.004000000    -1.905000000
H     5.576000000     4.635000000    -1.339000000
O    -1.356000000    -4.095000000    -2.755000000
H    -0.550000000    -3.613000000    -2.942000000
H    -1.121000000    -5.014000000    -2.885000000
O    -2.184000000    -1.269000000     4.656000000
H    -2.693000000    -0.983000000     3.898000000
H    -2.634000000    -2.056000000     4.965000000
O    -4.894000000    -3.167000000    -2.281000000
H    -5.198000000    -2.338000000    -2.651000000
H    -4.309000000    -3.527000000    -2.949000000
O     5.617000000     2.223000000     2.357000000
H     5.784000000     3.146000000     2.167000000
H     4.757000000     2.052000000     1.974000000
O    -6.100000000    -1.871000000     1.126000000
H    -5.817000000    -2.595000000     1.685000000
H    -5.457000000    -1.180000000     1.286000000
O     0.107000000    -2.785000000     3.042000000
H     0.346000000    -1.866000000     3.163000000
H    -0.792000000    -2.844000000     3.367000000
O     0.423000000     3.736000000     2.183000000
H    -0.360000000     3.367000000     1.774000000
H     0.486000000     4.621000000     1.824000000
O     0.148000000     2.678000000     4.933000000
H     0.150000000     3.046000000     4.049000000
H     0.714000000     3.263000000     5.436000000
O    -2.621000000     3.578000000    -2.655000000
H    -3.101000000     2.843000000    -3.034000000
H    -3.073000000     3.761000000    -1.831000000
O    -2.726000000    -7.257000000    -0.226000000
H    -2.970000000    -7.564000000     0.647000000
H    -2.363000000    -6.383000000    -0.080000000
O     3.327000000     7.916000000    -0.863000000
H     3.953000000     8.201000000    -1.528000000
H     3.475000000     6.974000000    -0.782000000
O    -3.759000000    -3.918000000    -4.499000000
H    -2.911000000    -3.826000000    -4.065000000
H    -3.792000000    -4.835000000    -4.770000000
O    -6.197000000    -0.864000000    -3.699000000
H    -6.182000000    -1.696000000    -4.172000000
H    -5.902000000    -0.218000000    -4.342000000
O    -3.797000000    -3.281000000     2.463000000
H    -3.440000000    -2.477000000     2.086000000
H    -4.148000000    -3.762000000     1.713000000
O    -4.524000000    -4.528000000     0.219000000
H    -4.543000000    -3.841000000    -0.447000000
H    -3.946000000    -5.199000000    -0.145000000
O     1.376000000    -5.178000000     2.441000000
H     1.030000000    -5.856000000     3.021000000
H     1.085000000    -4.355000000     2.835000000
O     1.532000000     3.275000000    -5.083000000
H     2.041000000     4.061000000    -5.280000000
H     1.668000000     3.129000000    -4.147000000
O     4.370000000     5.080000000     0.048000000
H     5.005000000     5.058000000     0.764000000
H     3.891000000     4.255000000     0.128000000
O     2.985000000     3.835000000     2.591000000
H     2.058000000     3.774000000     2.821000000
H     3.024000000     3.558000000     1.676000000
