161
-3034.00733
C     0.491000000     0.975000000     1.013000000
H     0.686000000     1.815000000     1.675000000
C    -0.820000000     0.782000000     0.658000000
H    -1.535000000     1.456000000     1.124000000
C    -1.169000000    -0.167000000    -0.295000000
C    -2.575000000    -0.297000000    -0.777000000
H    -3.074000000    -1.080000000    -0.202000000
H    -3.070000000     0.667000000    -0.639000000
H    -2.670000000    -0.470000000    -1.851000000
C    -0.239000000    -0.964000000    -0.860000000
H    -0.456000000    -1.653000000    -1.672000000
C     1.123000000    -0.734000000    -0.580000000
H     1.785000000    -1.299000000    -1.232000000
C     1.527000000     0.124000000     0.463000000
C     2.961000000     0.267000000     0.907000000
O     3.874000000    -0.167000000     0.229000000
O     3.156000000     0.743000000     2.032000000
O     3.230000000     3.614000000     1.945000000
H     3.061000000     2.677000000     2.033000000
H     3.906000000     3.798000000     2.598000000
O    -6.825000000    -0.995000000     2.376000000
H    -6.950000000    -1.877000000     2.025000000
H    -6.486000000    -0.489000000     1.637000000
O    -5.730000000     0.748000000     0.299000000
H    -5.290000000     0.688000000    -0.549000000
H    -5.911000000     1.682000000     0.409000000
O    -0.663000000    -5.558000000    -0.305000000
H    -1.285000000    -4.954000000     0.099000000
H    -0.621000000    -5.282000000    -1.221000000
O     3.973000000    -1.491000000    -3.583000000
H     3.561000000    -1.028000000    -4.313000000
H     4.414000000    -2.236000000    -3.991000000
O    -0.522000000     0.557000000    -3.967000000
H    -0.804000000    -0.325000000    -4.211000000
H     0.356000000     0.638000000    -4.339000000
O     3.167000000     5.685000000     0.071000000
H     3.303000000     5.017000000    -0.601000000
H     3.049000000     5.188000000     0.881000000
O    -3.013000000     1.841000000    -3.629000000
H    -3.094000000     1.983000000    -2.686000000
H    -2.277000000     1.235000000    -3.718000000
O     2.814000000     3.944000000    -2.124000000
H     2.829000000     3.314000000    -2.845000000
H     2.012000000     3.738000000    -1.643000000
O    -3.833000000     3.282000000    -1.339000000
H    -4.706000000     3.224000000    -0.950000000
H    -3.725000000     4.211000000    -1.547000000
O    -1.561000000     4.983000000    -3.089000000
H    -2.230000000     4.312000000    -3.225000000
H    -1.473000000     5.044000000    -2.138000000
O    -2.402000000     6.136000000     2.760000000
H    -2.740000000     6.585000000     3.535000000
H    -2.135000000     5.274000000     3.080000000
O    -2.978000000     6.348000000    -0.538000000
H    -2.566000000     7.211000000    -0.515000000
H    -2.262000000     5.736000000    -0.365000000
O    -0.693000000     2.051000000     5.078000000
H    -0.767000000     2.489000000     5.926000000
H    -0.552000000     1.129000000     5.296000000
O     6.265000000     2.259000000     5.907000000
H     5.910000000     1.555000000     5.364000000
H     7.014000000     2.590000000     5.411000000
O    -2.958000000    -3.607000000    -2.826000000
H    -2.007000000    -3.579000000    -2.713000000
H    -3.114000000    -4.390000000    -3.352000000
O    -3.048000000     4.584000000     5.240000000
H    -3.240000000     3.771000000     4.772000000
H    -3.755000000     4.666000000     5.879000000
O     4.947000000    -2.402000000     1.001000000
H     4.720000000    -1.540000000     0.651000000
H     4.212000000    -2.963000000     0.753000000
O     5.729000000    -2.817000000     3.672000000
H     6.588000000    -3.234000000     3.604000000
H     5.556000000    -2.480000000     2.792000000
O     7.267000000     1.991000000     2.927000000
H     8.158000000     1.906000000     2.587000000
H     7.014000000     2.890000000     2.713000000
O     1.982000000     1.523000000     6.714000000
H     1.773000000     2.404000000     6.405000000
H     1.920000000     0.974000000     5.932000000
O     4.904000000     4.663000000     3.669000000
H     5.796000000     4.963000000     3.492000000
H     4.846000000     4.637000000     4.624000000
O     0.413000000     6.822000000     2.804000000
H    -0.407000000     6.389000000     2.564000000
H     0.811000000     6.238000000     3.450000000
O     1.800000000    -0.329000000     4.107000000
H     2.310000000     0.203000000     3.497000000
H     1.994000000    -1.233000000     3.857000000
O    -6.562000000     3.353000000     0.522000000
H    -7.152000000     3.334000000    -0.232000000
H    -6.854000000     4.107000000     1.034000000
O     2.640000000    -4.047000000     0.390000000
H     2.083000000    -4.572000000     0.964000000
H     2.247000000    -4.143000000    -0.478000000
O    -1.418000000     3.679000000     2.969000000
H    -2.292000000     3.289000000     2.966000000
H    -0.872000000     3.039000000     3.427000000
O    -5.127000000     2.310000000    -5.560000000
H    -5.266000000     3.214000000    -5.844000000
H    -4.203000000     2.276000000    -5.313000000
O     5.357000000     2.318000000     0.325000000
H     4.706000000     3.018000000     0.267000000
H     4.840000000     1.517000000     0.411000000
O     4.465000000     0.797000000    -2.259000000
H     4.346000000    -0.063000000    -2.662000000
H     4.446000000     0.625000000    -1.317000000
O    -5.422000000     0.329000000    -2.849000000
H    -4.718000000     0.686000000    -3.390000000
H    -6.226000000     0.616000000    -3.283000000
O     5.199000000     0.558000000     3.873000000
H     4.507000000     0.655000000     3.219000000
H     5.973000000     0.941000000     3.461000000
O     1.950000000     5.298000000     4.367000000
H     2.372000000     4.978000000     3.570000000
H     2.430000000     4.876000000     5.079000000
O     6.654000000    -2.191000000    -1.544000000
H     6.804000000    -1.495000000    -0.904000000
H     6.015000000    -2.768000000    -1.124000000
O    -0.945000000    -2.144000000     2.098000000
H    -1.496000000    -1.493000000     2.532000000
H    -0.397000000    -1.634000000     1.500000000
O    -5.684000000    -3.704000000     0.461000000
H    -5.774000000    -3.413000000    -0.447000000
H    -4.740000000    -3.793000000     0.591000000
O    -0.764000000    -0.771000000     5.610000000
H    -1.530000000    -1.062000000     5.116000000
H    -0.083000000    -0.652000000     4.947000000
O    -2.852000000    -0.597000000     3.597000000
H    -3.137000000     0.282000000     3.346000000
H    -3.665000000    -1.093000000     3.692000000
O     7.385000000     0.171000000    -0.131000000
H     7.534000000     0.881000000    -0.756000000
H     6.730000000     0.519000000     0.475000000
O    -3.562000000     2.114000000     3.999000000
H    -3.514000000     1.719000000     4.869000000
H    -4.499000000     2.165000000     3.810000000
O     4.729000000    -1.383000000     5.825000000
H     4.760000000    -0.539000000     5.374000000
H     4.850000000    -2.030000000     5.130000000
O    -5.515000000    -2.613000000    -2.165000000
H    -4.678000000    -2.933000000    -2.502000000
H    -5.449000000    -1.660000000    -2.226000000
O     0.412000000     2.474000000    -1.741000000
H     0.249000000     1.804000000    -1.077000000
H     0.063000000     2.100000000    -2.550000000
O     2.262000000    -3.616000000    -2.481000000
H     2.541000000    -4.421000000    -2.917000000
H     2.946000000    -2.980000000    -2.692000000
O    -3.078000000    -4.230000000     1.388000000
H    -2.505000000    -4.883000000     1.790000000
H    -3.020000000    -3.471000000     1.970000000
O     5.199000000     2.209000000    -4.424000000
H     4.414000000     2.547000000    -4.856000000
H     4.870000000     1.773000000    -3.638000000
O    -0.285000000    -4.564000000    -3.190000000
H    -0.067000000    -5.097000000    -3.955000000
H     0.561000000    -4.273000000    -2.851000000
O    -1.007000000     4.566000000    -0.420000000
H    -0.810000000     4.527000000     0.516000000
H    -0.596000000     3.781000000    -0.783000000
