161
-3039.02872
C     0.747000000     0.195000000     1.203000000
H     1.170000000     0.328000000     2.195000000
C    -0.461000000     0.719000000     0.964000000
H    -0.935000000     1.345000000     1.716000000
C    -1.114000000     0.471000000    -0.179000000
C    -2.488000000     1.049000000    -0.459000000
H    -3.128000000     0.658000000     0.335000000
H    -2.515000000     2.135000000    -0.342000000
H    -2.860000000     0.767000000    -1.446000000
C    -0.530000000    -0.392000000    -1.092000000
H    -1.101000000    -0.524000000    -2.008000000
C     0.730000000    -0.940000000    -0.894000000
H     1.168000000    -1.655000000    -1.586000000
C     1.499000000    -0.560000000     0.202000000
C     2.854000000    -1.114000000     0.386000000
O     3.517000000    -1.619000000    -0.467000000
O     3.442000000    -0.858000000     1.464000000
O     2.440000000     3.294000000     1.300000000
H     2.602000000     3.451000000     0.369000000
H     1.504000000     3.461000000     1.411000000
O    -6.546000000     2.967000000    -3.353000000
H    -6.238000000     3.444000000    -2.582000000
H    -6.890000000     3.647000000    -3.933000000
O    -2.047000000    -2.171000000     0.998000000
H    -1.618000000    -1.316000000     0.963000000
H    -2.670000000    -2.097000000     1.721000000
O    -3.366000000    -1.278000000     3.374000000
H    -3.681000000    -0.518000000     3.862000000
H    -3.248000000    -1.957000000     4.038000000
O     0.379000000     0.739000000    -5.849000000
H     0.471000000    -0.061000000    -6.367000000
H     0.435000000     1.448000000    -6.490000000
O    -1.424000000     5.555000000    -0.449000000
H    -1.306000000     6.477000000    -0.217000000
H    -0.629000000     5.326000000    -0.931000000
O    -3.053000000    -0.472000000    -4.436000000
H    -2.454000000     0.249000000    -4.244000000
H    -2.488000000    -1.241000000    -4.504000000
O     6.400000000    -3.910000000     1.913000000
H     5.847000000    -4.318000000     1.247000000
H     5.962000000    -3.083000000     2.114000000
O    -5.859000000     1.110000000     1.533000000
H    -6.739000000     1.423000000     1.323000000
H    -5.288000000     1.852000000     1.334000000
O     4.510000000    -2.283000000    -2.630000000
H     4.083000000    -1.854000000    -1.889000000
H     5.143000000    -2.880000000    -2.229000000
O    -1.291000000    -2.595000000    -4.781000000
H    -0.441000000    -2.527000000    -5.216000000
H    -1.204000000    -3.352000000    -4.203000000
O    -1.835000000    -4.244000000    -0.803000000
H    -1.834000000    -3.661000000    -0.044000000
H    -2.653000000    -4.045000000    -1.257000000
O    -0.128000000    -2.599000000     3.763000000
H    -0.017000000    -2.991000000     4.629000000
H    -0.484000000    -1.728000000     3.939000000
O     5.986000000     1.967000000     1.194000000
H     6.325000000     2.203000000     2.057000000
H     5.109000000     2.349000000     1.168000000
O    -0.275000000    -4.428000000    -3.078000000
H    -0.850000000    -4.287000000    -2.325000000
H     0.607000000    -4.276000000    -2.737000000
O     5.458000000    -3.218000000    -5.073000000
H     5.792000000    -4.101000000    -4.912000000
H     5.345000000    -2.843000000    -4.200000000
O    -1.760000000     0.936000000     4.813000000
H    -1.706000000     1.889000000     4.741000000
H    -0.959000000     0.685000000     5.272000000
O     3.981000000    -3.992000000     0.707000000
H     4.230000000    -3.202000000     0.228000000
H     3.085000000    -3.821000000     0.999000000
O     4.298000000    -5.010000000     5.184000000
H     5.227000000    -5.197000000     5.047000000
H     4.110000000    -4.283000000     4.590000000
O    -5.729000000    -3.254000000    -0.257000000
H    -6.645000000    -3.508000000    -0.147000000
H    -5.556000000    -2.658000000     0.472000000
O     6.766000000    -3.985000000    -1.795000000
H     7.547000000    -4.491000000    -2.020000000
H     6.177000000    -4.621000000    -1.389000000
O     0.860000000    -0.009000000     5.953000000
H     0.271000000     0.001000000     6.708000000
H     1.234000000    -0.890000000     5.953000000
O    -1.352000000     1.518000000    -4.052000000
H    -1.908000000     2.172000000    -4.474000000
H    -0.739000000     1.247000000    -4.735000000
O    -0.435000000     4.218000000     1.697000000
H    -0.688000000     4.557000000     0.839000000
H    -1.144000000     4.490000000     2.280000000
O     3.489000000    -2.716000000     3.504000000
H     3.506000000    -1.871000000     3.055000000
H     3.123000000    -3.323000000     2.861000000
O     1.961000000    -4.412000000    -1.362000000
H     2.305000000    -4.339000000    -2.252000000
H     2.740000000    -4.469000000    -0.808000000
O    -3.686000000    -3.569000000    -5.682000000
H    -3.527000000    -3.448000000    -6.618000000
H    -2.891000000    -3.242000000    -5.260000000
O     5.516000000     2.392000000    -2.554000000
H     5.819000000     1.760000000    -1.903000000
H     5.497000000     1.901000000    -3.375000000
O    -5.796000000    -1.599000000     2.075000000
H    -4.924000000    -1.714000000     2.453000000
H    -5.779000000    -0.719000000     1.699000000
O    -2.504000000     5.327000000     2.926000000
H    -3.123000000     6.054000000     2.996000000
H    -2.911000000     4.617000000     3.422000000
O     6.024000000    -1.391000000     2.696000000
H     5.175000000    -1.271000000     2.270000000
H     6.259000000    -0.518000000     3.012000000
O     3.613000000     1.456000000     2.863000000
H     3.526000000     0.601000000     2.442000000
H     3.261000000     2.074000000     2.223000000
O    -4.469000000     6.272000000     0.053000000
H    -3.678000000     5.732000000     0.060000000
H    -4.553000000     6.585000000     0.953000000
O     4.937000000    -5.914000000    -1.180000000
H     4.553000000    -5.355000000    -0.504000000
H     4.215000000    -6.474000000    -1.465000000
O     1.849000000    -2.495000000     5.598000000
H     2.495000000    -2.451000000     4.893000000
H     2.272000000    -3.020000000     6.278000000
O     1.461000000    -3.464000000     1.691000000
H     1.017000000    -3.313000000     0.857000000
H     0.864000000    -3.106000000     2.348000000
O     5.761000000    -0.157000000    -0.338000000
H     5.749000000     0.349000000     0.474000000
H     4.951000000    -0.666000000    -0.317000000
O    -5.455000000     0.767000000     4.434000000
H    -5.141000000     1.575000000     4.840000000
H    -5.263000000     0.878000000     3.503000000
O     2.504000000    -4.254000000    -4.026000000
H     3.436000000    -4.191000000    -4.238000000
H     2.146000000    -3.400000000    -4.268000000
O     6.795000000     1.026000000     3.760000000
H     6.186000000     1.650000000     4.155000000
H     7.518000000     0.969000000     4.384000000
O     1.469000000    -1.887000000    -5.311000000
H     1.545000000    -1.019000000    -4.914000000
H     2.050000000    -1.853000000    -6.072000000
O     1.319000000     1.527000000    -2.805000000
H     0.880000000     1.055000000    -2.098000000
H     0.628000000     1.696000000    -3.446000000
O     8.307000000    -0.668000000    -1.387000000
H     7.435000000    -0.363000000    -1.138000000
H     8.626000000    -1.136000000    -0.615000000
O     8.681000000    -1.895000000     1.380000000
H     7.773000000    -2.005000000     1.660000000
H     9.151000000    -2.614000000     1.803000000
O    -0.285000000    -6.463000000     0.216000000
H     0.091000000    -6.855000000    -0.572000000
H    -0.656000000    -5.633000000    -0.084000000
O     3.591000000     0.184000000    -4.134000000
H     3.871000000    -0.580000000    -3.629000000
H     2.934000000     0.608000000    -3.582000000
O     3.215000000     1.252000000     5.515000000
H     3.424000000     1.181000000     4.583000000
H     2.309000000     0.950000000     5.580000000
O    -5.995000000     0.281000000    -4.328000000
H    -5.992000000     1.107000000    -3.844000000
H    -5.075000000     0.023000000    -4.367000000
