161
-3017.14083
C    -0.557000000    -0.756000000     1.129000000
H    -1.140000000    -1.251000000     1.902000000
C    -1.206000000     0.051000000     0.245000000
H    -2.249000000     0.344000000     0.333000000
C    -0.567000000     0.680000000    -0.812000000
C    -1.421000000     1.574000000    -1.733000000
H    -0.970000000     1.635000000    -2.725000000
H    -2.447000000     1.200000000    -1.745000000
H    -1.440000000     2.604000000    -1.372000000
C     0.761000000     0.430000000    -1.023000000
H     1.362000000     1.049000000    -1.685000000
C     1.455000000    -0.352000000    -0.126000000
H     2.533000000    -0.449000000    -0.228000000
C     0.779000000    -0.945000000     0.969000000
C     1.496000000    -1.787000000     1.972000000
O     2.716000000    -1.759000000     1.989000000
O     0.894000000    -2.267000000     2.918000000
O    -0.671000000     5.273000000    -1.187000000
H    -0.004000000     5.549000000    -1.816000000
H    -1.405000000     4.983000000    -1.728000000
O    -0.899000000    -1.246000000     4.500000000
H    -0.346000000    -1.605000000     3.806000000
H    -0.774000000    -1.842000000     5.238000000
O    -1.042000000    -4.086000000     1.564000000
H    -1.654000000    -3.489000000     1.993000000
H    -0.509000000    -3.522000000     1.004000000
O    -1.648000000     2.938000000    -4.895000000
H    -1.106000000     3.725000000    -4.932000000
H    -1.076000000     2.238000000    -5.210000000
O     5.073000000    -0.184000000    -5.105000000
H     4.603000000     0.233000000    -4.383000000
H     4.739000000     0.248000000    -5.891000000
O     0.032000000     1.180000000    -6.042000000
H     0.208000000     0.804000000    -6.904000000
H     0.480000000     0.597000000    -5.430000000
O     3.057000000    -0.775000000     4.399000000
H     2.707000000    -1.227000000     3.632000000
H     2.824000000    -1.338000000     5.137000000
O    -3.771000000     1.104000000    -4.569000000
H    -4.653000000     1.464000000    -4.479000000
H    -3.208000000     1.871000000    -4.669000000
O     3.039000000     5.187000000     0.178000000
H     2.771000000     6.103000000     0.108000000
H     2.525000000     4.735000000    -0.491000000
O    -5.257000000     0.176000000     2.116000000
H    -4.606000000    -0.060000000     2.776000000
H    -5.347000000     1.125000000     2.197000000
O     4.277000000    -6.089000000     4.155000000
H     4.005000000    -6.663000000     4.871000000
H     3.459000000    -5.724000000     3.818000000
O    -2.261000000     3.594000000     2.251000000
H    -1.816000000     4.328000000     1.827000000
H    -2.847000000     3.249000000     1.577000000
O     3.784000000    -3.337000000     0.235000000
H     3.371000000    -2.667000000     0.781000000
H     4.529000000    -3.641000000     0.753000000
O     2.090000000    -4.340000000     4.094000000
H     1.784000000    -3.585000000     3.591000000
H     1.643000000    -5.088000000     3.697000000
O     7.110000000    -1.461000000     1.838000000
H     6.908000000    -2.364000000     1.592000000
H     6.255000000    -1.048000000     1.959000000
O    -4.197000000     3.840000000    -5.551000000
H    -3.897000000     4.520000000    -6.154000000
H    -3.394000000     3.417000000    -5.248000000
O    -3.109000000    -1.432000000    -4.175000000
H    -3.196000000    -0.479000000    -4.137000000
H    -3.995000000    -1.760000000    -4.024000000
O    -1.435000000     6.220000000     1.275000000
H    -1.256000000     5.835000000     0.417000000
H    -0.788000000     6.919000000     1.364000000
O    -3.556000000    -0.310000000     4.308000000
H    -2.776000000    -0.793000000     4.579000000
H    -3.381000000     0.594000000     4.569000000
O     1.155000000    -6.077000000     2.446000000
H     0.805000000    -6.880000000     2.830000000
H     0.382000000    -5.597000000     2.148000000
O     5.275000000    -0.016000000     5.597000000
H     4.630000000    -0.221000000     4.919000000
H     6.120000000    -0.189000000     5.183000000
O     6.215000000     2.121000000     3.618000000
H     5.919000000     1.399000000     3.063000000
H     5.408000000     2.499000000     3.968000000
O     6.001000000    -3.996000000     4.793000000
H     5.614000000    -4.861000000     4.657000000
H     5.409000000    -3.563000000     5.408000000
O     3.382000000    -6.897000000     0.845000000
H     3.176000000    -6.274000000     0.148000000
H     3.040000000    -6.488000000     1.640000000
O     1.811000000    -0.478000000    -4.272000000
H     2.258000000    -1.324000000    -4.302000000
H     2.432000000     0.105000000    -3.834000000
O     0.761000000     2.559000000     1.675000000
H     0.557000000     2.297000000     0.777000000
H    -0.092000000     2.656000000     2.097000000
O    -2.804000000    -5.061000000     4.243000000
H    -3.322000000    -4.585000000     4.892000000
H    -2.622000000    -4.415000000     3.560000000
O    -2.360000000    -6.367000000     0.332000000
H    -3.232000000    -5.987000000     0.443000000
H    -1.760000000    -5.637000000     0.483000000
O    -1.102000000    -3.015000000     6.372000000
H    -0.933000000    -3.956000000     6.314000000
H    -0.400000000    -2.680000000     6.931000000
O     3.716000000     1.322000000    -3.040000000
H     3.835000000     1.348000000    -2.091000000
H     4.414000000     1.880000000    -3.384000000
O     0.666000000     1.161000000     4.966000000
H     1.592000000     1.043000000     4.755000000
H     0.303000000     0.275000000     4.955000000
O     4.890000000     0.085000000     1.779000000
H     4.202000000    -0.553000000     1.968000000
H     4.427000000     0.831000000     1.398000000
O    -3.983000000     3.661000000     0.202000000
H    -4.138000000     4.102000000    -0.633000000
H    -4.833000000     3.676000000     0.642000000
O     3.542000000    -3.688000000     6.180000000
H     2.969000000    -4.037000000     6.863000000
H     3.099000000    -3.907000000     5.361000000
O    -0.679000000    -2.681000000    -4.135000000
H    -1.401000000    -2.063000000    -4.256000000
H    -0.541000000    -3.061000000    -5.002000000
O    -4.581000000     5.190000000    -2.113000000
H    -3.738000000     5.462000000    -2.474000000
H    -4.918000000     4.553000000    -2.742000000
O    -4.874000000    -1.426000000    -0.300000000
H    -5.748000000    -1.365000000    -0.687000000
H    -4.823000000    -0.680000000     0.297000000
O    -2.905000000    -2.740000000     2.903000000
H    -2.768000000    -1.809000000     3.073000000
H    -3.811000000    -2.901000000     3.168000000
O     3.245000000     2.101000000     0.878000000
H     2.341000000     2.214000000     1.174000000
H     3.375000000     2.797000000     0.234000000
O     0.915000000    -2.441000000    -2.044000000
H     0.213000000    -2.520000000    -2.690000000
H     0.808000000    -1.563000000    -1.679000000
O    -3.776000000    -3.325000000    -1.636000000
H    -4.106000000    -2.822000000    -2.380000000
H    -3.858000000    -2.731000000    -0.890000000
O    -2.463000000     5.779000000    -3.554000000
H    -1.882000000     5.527000000    -4.271000000
H    -2.018000000     6.513000000    -3.131000000
O     1.986000000     3.494000000    -1.657000000
H     1.645000000     2.814000000    -2.238000000
H     2.583000000     4.001000000    -2.207000000
O     3.599000000     4.918000000    -3.128000000
H     3.962000000     5.755000000    -2.839000000
H     4.361000000     4.349000000    -3.231000000
O    -2.655000000     2.203000000     4.768000000
H    -2.714000000     2.497000000     3.858000000
H    -1.723000000     2.039000000     4.907000000
O     3.134000000    -3.842000000    -2.346000000
H     2.317000000    -3.354000000    -2.446000000
H     3.443000000    -3.614000000    -1.469000000
O     6.256000000    -3.705000000    -1.474000000
H     6.480000000    -3.236000000    -2.277000000
H     5.309000000    -3.595000000    -1.388000000
O     5.892000000    -4.029000000     1.852000000
H     6.067000000    -4.963000000     1.731000000
H     5.652000000    -3.949000000     2.775000000
