161
-3039.63174
C    -0.286000000    -1.175000000     0.714000000
H    -0.507000000    -1.972000000     1.418000000
C    -1.219000000    -0.169000000     0.567000000
H    -2.091000000    -0.107000000     1.214000000
C    -0.815000000     0.905000000    -0.244000000
C    -1.853000000     1.951000000    -0.610000000
H    -2.817000000     1.439000000    -0.578000000
H    -1.929000000     2.698000000     0.183000000
H    -1.705000000     2.377000000    -1.605000000
C     0.550000000     1.014000000    -0.556000000
H     0.838000000     1.907000000    -1.106000000
C     1.452000000    -0.007000000    -0.366000000
H     2.491000000     0.106000000    -0.664000000
C     1.021000000    -1.118000000     0.266000000
C     2.043000000    -2.290000000     0.470000000
O     3.281000000    -2.118000000     0.341000000
O     1.550000000    -3.438000000     0.564000000
O    -1.550000000     4.785000000    -5.806000000
H    -0.810000000     5.304000000    -5.490000000
H    -1.735000000     4.172000000    -5.094000000
O    -0.779000000    -7.936000000     0.610000000
H    -1.602000000    -8.064000000     0.138000000
H    -0.202000000    -7.513000000    -0.026000000
O     3.806000000    -3.039000000    -2.139000000
H     3.091000000    -3.658000000    -2.288000000
H     3.681000000    -2.741000000    -1.238000000
O    -3.734000000     3.716000000     2.447000000
H    -3.845000000     2.767000000     2.500000000
H    -2.787000000     3.849000000     2.497000000
O    -2.630000000    -4.145000000     3.513000000
H    -1.760000000    -4.285000000     3.140000000
H    -2.482000000    -3.555000000     4.252000000
O     3.097000000    -0.817000000    -3.887000000
H     3.641000000    -0.037000000    -3.993000000
H     3.557000000    -1.344000000    -3.234000000
O     7.020000000    -2.275000000     1.395000000
H     6.324000000    -1.844000000     1.891000000
H     7.740000000    -1.644000000     1.394000000
O    -5.959000000     1.887000000    -2.008000000
H    -6.868000000     1.637000000    -2.173000000
H    -5.478000000     1.059000000    -2.013000000
O    -2.366000000     1.213000000     4.281000000
H    -3.005000000     1.026000000     3.593000000
H    -2.808000000     1.838000000     4.855000000
O    -4.528000000    -0.526000000     0.088000000
H    -4.272000000    -1.345000000     0.513000000
H    -4.661000000    -0.764000000    -0.829000000
O    -6.523000000     3.683000000    -0.119000000
H    -5.974000000     3.427000000     0.622000000
H    -6.173000000     3.186000000    -0.859000000
O     0.098000000     2.306000000     2.565000000
H     0.474000000     1.717000000     3.219000000
H    -0.249000000     1.723000000     1.889000000
O     2.544000000    -7.635000000     2.119000000
H     1.614000000    -7.861000000     2.149000000
H     2.661000000    -7.218000000     1.265000000
O    -3.488000000    -4.962000000    -0.318000000
H    -2.667000000    -4.570000000    -0.615000000
H    -3.438000000    -5.873000000    -0.607000000
O    -1.324000000     4.819000000    -2.392000000
H    -1.683000000     5.165000000    -1.576000000
H    -0.779000000     4.080000000    -2.120000000
O     0.572000000    -2.223000000     5.038000000
H     1.473000000    -1.947000000     4.869000000
H     0.635000000    -3.167000000     5.188000000
O     0.280000000    -4.780000000     2.437000000
H     0.714000000    -4.344000000     1.703000000
H     0.856000000    -4.621000000     3.185000000
O    -0.974000000    -4.281000000    -0.620000000
H    -0.073000000    -4.049000000    -0.846000000
H    -0.919000000    -4.603000000     0.280000000
O     4.713000000     2.643000000     1.901000000
H     3.777000000     2.766000000     2.061000000
H     4.752000000     2.113000000     1.105000000
O     5.228000000     0.052000000    -0.725000000
H     6.120000000     0.231000000    -1.022000000
H     5.251000000    -0.858000000    -0.430000000
O     2.695000000     5.167000000    -3.824000000
H     3.363000000     5.699000000    -3.392000000
H     2.327000000     4.629000000    -3.123000000
O    -1.208000000    -3.697000000    -3.496000000
H    -1.335000000    -3.844000000    -2.558000000
H    -1.709000000    -2.903000000    -3.684000000
O     4.690000000    -1.035000000     2.451000000
H     4.160000000    -1.080000000     3.246000000
H     4.100000000    -1.322000000     1.754000000
O    -0.244000000    -7.593000000     3.377000000
H    -0.184000000    -6.637000000     3.363000000
H    -0.417000000    -7.835000000     2.467000000
O    -0.196000000     5.203000000     3.228000000
H    -0.505000000     4.400000000     2.809000000
H     0.751000000     5.199000000     3.085000000
O    -2.460000000     2.586000000    -4.306000000
H    -2.536000000     2.976000000    -3.435000000
H    -1.696000000     2.013000000    -4.246000000
O     5.054000000    -4.126000000     0.873000000
H     4.543000000    -3.460000000     0.413000000
H     5.886000000    -3.696000000     1.068000000
O     1.620000000    -4.895000000     4.858000000
H     1.256000000    -5.463000000     5.537000000
H     2.524000000    -5.194000000     4.754000000
O    -0.390000000     1.199000000    -3.402000000
H     0.222000000     1.049000000    -2.682000000
H    -0.841000000     0.361000000    -3.512000000
O    -4.346000000     1.128000000     2.269000000
H    -4.260000000     0.570000000     1.496000000
H    -5.180000000     0.867000000     2.661000000
O    -4.362000000     3.070000000    -5.997000000
H    -3.659000000     2.680000000    -5.479000000
H    -3.923000000     3.719000000    -6.548000000
O     3.022000000    -5.688000000    -0.120000000
H     3.894000000    -5.377000000     0.122000000
H     2.465000000    -4.912000000    -0.059000000
O    -1.913000000    -2.811000000     5.820000000
H    -2.201000000    -2.355000000     6.611000000
H    -1.085000000    -2.390000000     5.590000000
O    -2.068000000    -1.031000000    -2.701000000
H    -2.897000000    -1.440000000    -2.453000000
H    -1.583000000    -0.954000000    -1.879000000
O     6.315000000    -2.355000000    -2.875000000
H     6.477000000    -3.115000000    -3.434000000
H     5.442000000    -2.508000000    -2.512000000
O     0.172000000     0.679000000     5.060000000
H     0.189000000    -0.272000000     5.167000000
H    -0.737000000     0.879000000     4.838000000
O     6.025000000     0.824000000     3.832000000
H     5.605000000     0.125000000     3.330000000
H     5.613000000     1.627000000     3.515000000
O    -4.093000000    -2.855000000     1.386000000
H    -3.784000000    -3.637000000     0.928000000
H    -3.839000000    -2.995000000     2.298000000
O     1.503000000    -4.514000000    -2.640000000
H     0.812000000    -4.044000000    -3.107000000
H     1.106000000    -5.352000000    -2.404000000
O     3.244000000    -1.164000000     4.787000000
H     4.081000000    -1.364000000     5.206000000
H     2.967000000    -0.339000000     5.186000000
O     4.668000000     1.680000000    -4.054000000
H     4.178000000     2.472000000    -4.272000000
H     5.538000000     1.996000000    -3.811000000
O     1.708000000     4.355000000    -1.421000000
H     1.199000000     5.145000000    -1.607000000
H     2.402000000     4.650000000    -0.832000000
O     3.043000000    -7.851000000    -2.121000000
H     2.600000000    -8.609000000    -1.739000000
H     2.972000000    -7.170000000    -1.452000000
O    -1.383000000     7.170000000    -3.856000000
H    -0.867000000     6.816000000    -4.581000000
H    -1.357000000     6.485000000    -3.187000000
O     0.486000000    -7.088000000    -1.660000000
H     1.077000000    -7.445000000    -2.323000000
H    -0.343000000    -6.961000000    -2.122000000
O     1.015000000     1.276000000    -6.076000000
H     0.860000000     1.304000000    -5.132000000
H     0.149000000     1.130000000    -6.457000000
O     4.902000000    -4.844000000     4.030000000
H     4.329000000    -4.300000000     3.490000000
H     5.759000000    -4.421000000     3.971000000
O    -4.889000000    -0.920000000    -2.689000000
H    -5.228000000    -0.351000000    -3.380000000
H    -4.944000000    -1.802000000    -3.057000000
