161
-3054.63397
C     0.896000000    -1.266000000     0.192000000
H     1.511000000    -2.160000000     0.252000000
C    -0.591000000    -1.259000000     0.151000000
H    -1.252000000    -2.114000000     0.270000000
C    -1.213000000    -0.056000000     0.123000000
C    -2.788000000     0.052000000    -0.086000000
H    -3.182000000    -0.600000000    -0.868000000
H    -3.230000000    -0.154000000     0.891000000
H    -3.060000000     1.029000000    -0.494000000
C    -0.511000000     1.158000000    -0.062000000
H    -0.952000000     2.143000000    -0.193000000
C     0.863000000     1.142000000    -0.053000000
H     1.427000000     2.044000000    -0.277000000
C     1.556000000    -0.093000000     0.029000000
C     3.083000000     0.013000000    -0.002000000
O     3.682000000     0.963000000    -0.507000000
O     3.753000000    -0.836000000     0.632000000
O    -3.262000000    -5.394000000     1.972000000
H    -3.683000000    -5.620000000     1.143000000
H    -3.951000000    -5.501000000     2.628000000
O     0.872000000    -6.521000000     1.096000000
H     0.391000000    -6.719000000     0.292000000
H     0.623000000    -5.621000000     1.308000000
O     5.383000000     4.686000000    -2.326000000
H     6.128000000     5.043000000    -1.842000000
H     4.790000000     4.361000000    -1.649000000
O     6.407000000     3.275000000     1.235000000
H     7.327000000     3.231000000     0.972000000
H     6.222000000     2.412000000     1.604000000
O     1.820000000    -2.718000000     2.909000000
H     2.098000000    -2.624000000     1.998000000
H     0.994000000    -3.200000000     2.858000000
O    -2.995000000     3.374000000    -1.201000000
H    -2.631000000     4.153000000    -1.622000000
H    -3.296000000     2.827000000    -1.926000000
O    -0.410000000    -1.561000000    -4.499000000
H    -0.157000000    -0.807000000    -3.967000000
H     0.139000000    -2.276000000    -4.178000000
O    -5.297000000    -0.876000000     3.513000000
H    -5.748000000    -1.555000000     3.010000000
H    -5.717000000    -0.897000000     4.373000000
O     0.060000000     0.919000000    -3.188000000
H     0.084000000     0.917000000    -2.231000000
H     0.772000000     1.505000000    -3.444000000
O     0.391000000     6.406000000     0.064000000
H     1.117000000     6.988000000     0.288000000
H     0.620000000     5.570000000     0.472000000
O     4.075000000     3.469000000    -0.251000000
H     4.051000000     2.513000000    -0.241000000
H     4.943000000     3.690000000     0.086000000
O     3.520000000    -0.224000000     3.428000000
H     3.615000000    -0.223000000     2.476000000
H     2.968000000    -0.984000000     3.613000000
O    -2.248000000     5.482000000     3.385000000
H    -2.557000000     5.049000000     4.181000000
H    -2.119000000     4.770000000     2.759000000
O     4.148000000     3.202000000    -5.163000000
H     3.879000000     2.713000000    -4.386000000
H     3.589000000     2.866000000    -5.863000000
O     2.850000000    -0.698000000    -3.370000000
H     2.672000000     0.227000000    -3.197000000
H     3.090000000    -0.725000000    -4.296000000
O     6.960000000     1.286000000    -2.826000000
H     6.713000000     1.136000000    -3.739000000
H     6.537000000     0.575000000    -2.344000000
O    -2.680000000     5.308000000    -3.165000000
H    -1.853000000     5.777000000    -3.055000000
H    -2.523000000     4.714000000    -3.899000000
O     0.105000000     2.297000000     2.937000000
H     0.030000000     1.344000000     2.970000000
H    -0.753000000     2.595000000     2.634000000
O     5.044000000    -2.571000000    -4.036000000
H     5.731000000    -1.911000000    -3.941000000
H     4.332000000    -2.259000000    -3.477000000
O     1.210000000    -3.286000000    -3.398000000
H     1.627000000    -3.923000000    -3.979000000
H     1.911000000    -2.674000000    -3.173000000
O     2.972000000     2.166000000    -2.739000000
H     3.135000000     3.078000000    -2.499000000
H     3.321000000     1.660000000    -2.005000000
O    -2.331000000     6.963000000     0.894000000
H    -1.568000000     6.592000000     0.450000000
H    -2.391000000     6.473000000     1.715000000
O     0.193000000    -3.983000000     1.367000000
H    -0.571000000    -3.658000000     1.844000000
H    -0.077000000    -3.975000000     0.449000000
O    -2.471000000     3.328000000     1.793000000
H    -2.902000000     3.423000000     0.943000000
H    -3.152000000     2.981000000     2.369000000
O    -4.580000000     2.062000000     2.786000000
H    -4.890000000     2.063000000     3.691000000
H    -5.122000000     1.406000000     2.347000000
O    -2.726000000    -2.696000000    -3.278000000
H    -2.021000000    -2.066000000    -3.430000000
H    -2.885000000    -3.089000000    -4.136000000
O    -0.001000000     6.102000000    -2.676000000
H     0.769000000     5.565000000    -2.488000000
H    -0.145000000     6.604000000    -1.873000000
O    -1.750000000     3.058000000    -4.208000000
H    -0.958000000     3.127000000    -4.741000000
H    -1.508000000     2.465000000    -3.496000000
O     3.155000000    -2.697000000     5.065000000
H     2.481000000    -2.769000000     4.389000000
H     3.388000000    -3.603000000     5.268000000
O     1.220000000     4.448000000     1.522000000
H     2.165000000     4.317000000     1.443000000
H     0.891000000     3.617000000     1.864000000
O     5.680000000    -0.660000000    -1.874000000
H     4.901000000    -0.185000000    -1.585000000
H     5.844000000    -1.297000000    -1.178000000
O     7.905000000    -1.253000000    -0.117000000
H     7.381000000    -1.119000000     0.673000000
H     8.731000000    -0.803000000     0.065000000
O    -5.514000000    -3.036000000     1.425000000
H    -4.732000000    -3.013000000     0.873000000
H    -5.928000000    -3.874000000     1.218000000
O     4.805000000     0.290000000     5.670000000
H     4.609000000     0.106000000     4.751000000
H     4.384000000    -0.421000000     6.152000000
O     5.032000000    -3.003000000     0.247000000
H     4.647000000    -2.126000000     0.248000000
H     5.382000000    -3.112000000     1.131000000
O    -0.696000000    -0.258000000     3.355000000
H    -1.623000000    -0.321000000     3.582000000
H    -0.635000000    -0.646000000     2.482000000
O    -4.238000000    -3.031000000    -0.991000000
H    -3.789000000    -2.612000000    -1.726000000
H    -4.458000000    -3.905000000    -1.313000000
O    -2.627000000    -5.524000000    -2.091000000
H    -3.422000000    -5.862000000    -2.502000000
H    -2.587000000    -4.608000000    -2.366000000
O     2.389000000     5.035000000    -1.710000000
H     2.843000000     5.872000000    -1.617000000
H     2.705000000     4.508000000    -0.976000000
O     5.481000000     0.971000000     1.836000000
H     5.054000000     0.368000000     1.227000000
H     4.869000000     1.045000000     2.568000000
O     5.791000000    -2.919000000     3.154000000
H     4.945000000    -2.720000000     3.555000000
H     6.401000000    -2.307000000     3.565000000
O    -5.920000000     3.554000000     0.436000000
H    -6.615000000     3.053000000     0.009000000
H    -5.226000000     3.608000000    -0.220000000
O    -0.249000000    -4.113000000    -1.192000000
H    -0.803000000    -4.739000000    -1.657000000
H     0.265000000    -3.689000000    -1.879000000
O    -7.898000000     1.489000000    -0.121000000
H    -7.395000000     0.674000000    -0.115000000
H    -8.410000000     1.460000000     0.687000000
O     4.811000000    -5.541000000    -0.355000000
H     4.821000000    -4.618000000    -0.100000000
H     5.353000000    -5.577000000    -1.144000000
O    -2.904000000    -0.648000000     4.628000000
H    -2.948000000    -0.374000000     5.544000000
H    -3.819000000    -0.724000000     4.357000000
O    -6.939000000    -1.138000000     0.095000000
H    -7.052000000    -1.562000000    -0.755000000
H    -6.463000000    -1.780000000     0.622000000
O    -1.936000000    -3.027000000     2.900000000
H    -2.399000000    -2.383000000     3.437000000
H    -2.498000000    -3.801000000     2.917000000
