161
-3041.36886
C     1.092000000    -0.940000000     0.375000000
H     1.852000000    -1.660000000     0.667000000
C     0.044000000    -0.525000000     1.234000000
H    -0.062000000    -0.995000000     2.209000000
C    -0.935000000     0.347000000     0.731000000
C    -2.026000000     0.786000000     1.610000000
H    -2.806000000     1.342000000     1.087000000
H    -2.554000000    -0.054000000     2.067000000
H    -1.698000000     1.338000000     2.493000000
C    -0.809000000     0.802000000    -0.542000000
H    -1.494000000     1.556000000    -0.923000000
C     0.192000000     0.511000000    -1.416000000
H     0.261000000     0.874000000    -2.439000000
C     1.145000000    -0.435000000    -0.959000000
C     2.327000000    -0.858000000    -1.806000000
O     2.255000000    -0.475000000    -2.983000000
O     3.223000000    -1.614000000    -1.405000000
O    -0.677000000    -3.638000000    -3.422000000
H    -0.617000000    -3.666000000    -4.377000000
H    -1.273000000    -4.353000000    -3.199000000
O     1.504000000    -6.393000000     3.261000000
H     1.192000000    -5.549000000     2.934000000
H     2.160000000    -6.168000000     3.920000000
O    -1.906000000    -1.827000000     4.128000000
H    -2.849000000    -1.944000000     4.014000000
H    -1.822000000    -1.353000000     4.955000000
O    -4.714000000    -2.459000000     2.997000000
H    -3.975000000    -2.421000000     2.390000000
H    -4.969000000    -3.381000000     3.008000000
O    -4.645000000     0.420000000    -4.278000000
H    -3.937000000    -0.129000000    -3.940000000
H    -5.041000000     0.807000000    -3.498000000
O     7.509000000    -0.391000000     1.225000000
H     6.855000000    -0.498000000     0.535000000
H     7.399000000     0.512000000     1.521000000
O     4.445000000    -2.339000000     0.740000000
H     3.996000000    -2.014000000    -0.040000000
H     4.692000000    -1.549000000     1.221000000
O     2.492000000    -3.411000000    -5.857000000
H     1.656000000    -3.866000000    -5.960000000
H     2.664000000    -3.435000000    -4.916000000
O     7.987000000    -2.224000000    -1.743000000
H     7.804000000    -2.334000000    -2.676000000
H     7.575000000    -1.391000000    -1.515000000
O    -4.362000000     3.942000000     0.344000000
H    -3.954000000     4.630000000     0.869000000
H    -5.021000000     4.399000000    -0.179000000
O    -0.093000000     4.583000000     2.340000000
H    -0.955000000     4.293000000     2.639000000
H    -0.176000000     5.534000000     2.258000000
O     4.611000000     1.970000000    -6.198000000
H     4.213000000     1.162000000    -5.874000000
H     4.545000000     1.904000000    -7.150000000
O     0.738000000    -1.215000000    -4.974000000
H    -0.045000000    -0.665000000    -4.948000000
H     1.148000000    -1.088000000    -4.119000000
O     2.935000000    -4.708000000     0.485000000
H     3.167000000    -5.449000000     1.046000000
H     3.554000000    -4.020000000     0.730000000
O    -2.399000000     3.973000000    -1.408000000
H    -2.733000000     3.378000000    -2.079000000
H    -2.979000000     3.840000000    -0.659000000
O    -2.634000000    -1.330000000    -2.972000000
H    -1.979000000    -0.723000000    -3.318000000
H    -2.123000000    -2.008000000    -2.530000000
O    -4.113000000     5.344000000     5.171000000
H    -4.737000000     5.855000000     4.656000000
H    -3.494000000     5.001000000     4.527000000
O     2.383000000    -0.286000000     5.805000000
H     1.858000000     0.409000000     5.408000000
H     2.730000000    -0.778000000     5.060000000
O    -1.944000000    -0.587000000     6.532000000
H    -1.182000000    -0.201000000     6.963000000
H    -2.278000000    -1.226000000     7.162000000
O    -0.461000000     5.515000000    -2.134000000
H    -1.325000000     5.129000000    -1.988000000
H     0.020000000     4.848000000    -2.625000000
O    -0.780000000    -3.028000000    -0.760000000
H    -0.759000000    -2.071000000    -0.763000000
H    -0.627000000    -3.274000000    -1.673000000
O    -4.630000000    -0.975000000    -0.367000000
H    -4.208000000    -1.069000000     0.486000000
H    -3.933000000    -1.146000000    -1.000000000
O    -0.442000000     4.281000000    -5.663000000
H    -0.025000000     3.958000000    -6.461000000
H     0.164000000     4.041000000    -4.962000000
O    -5.273000000     1.458000000    -1.756000000
H    -5.252000000     2.109000000    -1.055000000
H    -5.208000000     0.617000000    -1.304000000
O    -1.197000000    -4.648000000     3.134000000
H    -0.722000000    -3.853000000     3.375000000
H    -0.706000000    -5.004000000     2.393000000
O    -2.319000000     3.769000000     3.582000000
H    -2.887000000     3.410000000     2.900000000
H    -2.331000000     3.109000000     4.275000000
O     3.529000000    -1.708000000     3.622000000
H     4.173000000    -2.414000000     3.673000000
H     3.931000000    -1.059000000     3.045000000
O     4.923000000    -4.775000000    -4.022000000
H     4.829000000    -3.836000000    -3.860000000
H     5.038000000    -5.159000000    -3.153000000
O     3.735000000     2.030000000    -3.190000000
H     4.207000000     1.921000000    -4.016000000
H     3.218000000     1.229000000    -3.102000000
O    -5.667000000     1.779000000     2.053000000
H    -6.317000000     2.167000000     1.467000000
H    -4.839000000     2.184000000     1.795000000
O     4.768000000    -2.083000000    -3.522000000
H     4.336000000    -1.344000000    -3.950000000
H     4.536000000    -1.993000000    -2.597000000
O     1.378000000    -3.261000000     2.909000000
H     2.114000000    -2.702000000     3.155000000
H     0.999000000    -2.833000000     2.141000000
O     6.225000000    -4.595000000     0.481000000
H     5.641000000    -3.837000000     0.528000000
H     6.442000000    -4.786000000     1.393000000
O     3.536000000    -0.319000000    -5.515000000
H     3.377000000    -1.222000000    -5.788000000
H     2.746000000    -0.070000000    -5.035000000
O    -1.498000000     0.597000000    -5.125000000
H    -1.957000000     1.428000000    -5.006000000
H    -1.384000000     0.520000000    -6.072000000
O     2.230000000     2.127000000     2.395000000
H     1.585000000     1.939000000     3.077000000
H     1.827000000     2.817000000     1.868000000
O     2.254000000    -4.322000000    -2.173000000
H     2.620000000    -3.438000000    -2.211000000
H     2.413000000    -4.608000000    -1.273000000
O    -5.747000000    -0.146000000     4.025000000
H    -5.816000000     0.576000000     3.401000000
H    -5.332000000    -0.852000000     3.529000000
O    -3.079000000     1.940000000     5.502000000
H    -3.115000000     0.985000000     5.561000000
H    -3.089000000     2.237000000     6.412000000
O     5.611000000     0.150000000    -0.909000000
H     5.801000000     0.580000000    -1.743000000
H     4.793000000    -0.322000000    -1.063000000
O     4.437000000     0.514000000     2.228000000
H     3.670000000     1.082000000     2.158000000
H     5.124000000     0.979000000     1.750000000
O     1.906000000     4.787000000     4.235000000
H     1.190000000     4.517000000     3.659000000
H     1.500000000     5.393000000     4.854000000
O     1.219000000     3.547000000    -3.127000000
H     1.819000000     3.857000000    -2.448000000
H     1.718000000     2.884000000    -3.603000000
O    -2.642000000     3.141000000    -4.197000000
H    -3.336000000     3.763000000    -4.415000000
H    -1.848000000     3.528000000    -4.566000000
O     0.171000000    -4.944000000     0.817000000
H     1.034000000    -5.128000000     0.445000000
H    -0.115000000    -4.145000000     0.374000000
O     0.111000000     1.677000000     4.544000000
H    -0.690000000     1.226000000     4.812000000
H     0.326000000     2.244000000     5.285000000
O     5.550000000     3.283000000    -1.700000000
H     4.657000000     3.205000000    -2.036000000
H     5.979000000     2.471000000    -1.972000000
O     0.680000000     3.543000000     0.055000000
H    -0.070000000     3.069000000    -0.305000000
H     0.322000000     4.024000000     0.802000000
