161
-3063.16447
C     0.723000000    -0.325000000     1.262000000
H     1.239000000    -0.808000000     2.088000000
C    -0.652000000    -0.314000000     1.095000000
H    -1.264000000    -0.772000000     1.867000000
C    -1.238000000     0.053000000    -0.134000000
C    -2.722000000    -0.180000000    -0.407000000
H    -3.240000000     0.755000000    -0.189000000
H    -2.981000000    -0.716000000    -1.323000000
H    -3.008000000    -0.923000000     0.340000000
C    -0.412000000     0.507000000    -1.154000000
H    -0.923000000     0.919000000    -2.020000000
C     0.986000000     0.561000000    -0.984000000
H     1.615000000     0.786000000    -1.842000000
C     1.529000000     0.096000000     0.193000000
C     3.045000000     0.038000000     0.330000000
O     3.733000000     0.551000000    -0.517000000
O     3.572000000    -0.222000000     1.396000000
O     2.441000000    -2.409000000    -1.686000000
H     2.649000000    -3.234000000    -1.247000000
H     1.580000000    -2.167000000    -1.346000000
O     5.756000000     4.860000000    -0.873000000
H     6.140000000     4.048000000    -1.203000000
H     6.506000000     5.374000000    -0.571000000
O     0.449000000    -0.857000000     5.279000000
H    -0.088000000    -1.296000000     4.620000000
H     0.525000000     0.044000000     4.966000000
O    -7.089000000    -0.433000000    -1.267000000
H    -7.975000000    -0.491000000    -1.626000000
H    -6.578000000    -1.053000000    -1.788000000
O    -5.747000000    -0.261000000     1.221000000
H    -5.952000000     0.629000000     1.507000000
H    -6.133000000    -0.327000000     0.347000000
O     4.328000000     1.308000000    -5.047000000
H     4.113000000     0.618000000    -4.419000000
H     4.392000000     2.103000000    -4.517000000
O    -5.584000000    -2.353000000    -2.397000000
H    -5.321000000    -3.100000000    -1.859000000
H    -4.805000000    -2.144000000    -2.913000000
O     7.547000000     2.872000000    -1.713000000
H     7.974000000     2.154000000    -1.246000000
H     8.270000000     3.411000000    -2.036000000
O    -7.440000000     1.859000000     0.481000000
H    -6.927000000     1.449000000    -0.215000000
H    -8.350000000     1.694000000     0.237000000
O     4.023000000    -0.651000000     4.125000000
H     4.063000000    -0.577000000     3.172000000
H     3.360000000    -0.013000000     4.388000000
O    -4.408000000    -2.221000000     2.402000000
H    -4.854000000    -1.549000000     1.886000000
H    -4.372000000    -1.858000000     3.287000000
O    -4.187000000     2.769000000     1.015000000
H    -4.743000000     3.530000000     1.180000000
H    -3.524000000     3.086000000     0.401000000
O     3.866000000     3.899000000    -3.760000000
H     3.834000000     4.616000000    -3.127000000
H     3.239000000     4.149000000    -4.438000000
O     3.734000000    -0.269000000    -3.018000000
H     3.352000000    -1.122000000    -2.808000000
H     3.717000000     0.211000000    -2.190000000
O    -1.437000000    -4.370000000    -0.463000000
H    -2.212000000    -4.208000000     0.075000000
H    -0.953000000    -5.046000000     0.013000000
O    -1.868000000     5.338000000    -3.323000000
H    -0.943000000     5.089000000    -3.322000000
H    -1.902000000     6.129000000    -3.862000000
O    -7.248000000    -3.898000000     1.690000000
H    -6.953000000    -4.005000000     0.786000000
H    -6.618000000    -3.290000000     2.077000000
O     0.570000000     1.872000000    -4.173000000
H     0.603000000     1.128000000    -4.774000000
H     1.397000000     2.333000000    -4.316000000
O    -3.418000000    -1.920000000    -4.571000000
H    -2.529000000    -2.016000000    -4.914000000
H    -3.980000000    -2.276000000    -5.260000000
O    -0.696000000    -2.329000000    -2.172000000
H    -0.688000000    -1.508000000    -1.680000000
H    -1.049000000    -2.973000000    -1.558000000
O    -2.452000000     3.790000000    -1.061000000
H    -2.160000000     4.480000000    -1.657000000
H    -1.709000000     3.189000000    -1.007000000
O    -3.596000000    -4.435000000     1.117000000
H    -4.277000000    -4.571000000     0.458000000
H    -3.958000000    -3.769000000     1.701000000
O    -3.657000000     1.104000000     3.219000000
H    -4.487000000     1.183000000     3.689000000
H    -3.809000000     1.554000000     2.388000000
O     1.525000000    -3.139000000     6.337000000
H     1.291000000    -2.250000000     6.068000000
H     2.470000000    -3.192000000     6.193000000
O    -1.349000000     3.234000000    -5.586000000
H    -2.279000000     3.014000000    -5.637000000
H    -1.051000000     2.828000000    -4.773000000
O     7.090000000    -1.825000000     4.592000000
H     6.887000000    -0.974000000     4.205000000
H     7.283000000    -1.632000000     5.509000000
O     4.625000000     2.213000000     2.913000000
H     4.250000000     2.985000000     2.489000000
H     4.290000000     1.474000000     2.405000000
O     3.178000000    -2.460000000    -4.777000000
H     3.318000000    -1.600000000    -4.382000000
H     2.504000000    -2.867000000    -4.232000000
O     2.978000000     3.090000000    -1.059000000
H     3.613000000     3.311000000    -1.740000000
H     3.247000000     2.224000000    -0.753000000
O    -2.124000000     1.776000000     5.477000000
H    -2.480000000     1.396000000     4.673000000
H    -1.214000000     1.983000000     5.262000000
O     5.990000000    -2.165000000    -3.633000000
H     5.851000000    -2.924000000    -4.200000000
H     5.148000000    -1.708000000    -3.634000000
O     4.211000000    -2.970000000     5.967000000
H     4.136000000    -2.466000000     5.156000000
H     4.512000000    -2.335000000     6.617000000
O     2.648000000    -3.223000000     1.343000000
H     3.051000000    -2.377000000     1.534000000
H     3.387000000    -3.818000000     1.216000000
O     0.539000000     4.471000000    -2.080000000
H     1.222000000     5.141000000    -2.099000000
H     0.973000000     3.696000000    -1.723000000
O     6.974000000    -0.511000000    -1.198000000
H     6.891000000    -1.365000000    -1.622000000
H     6.257000000     0.008000000    -1.563000000
O    -0.723000000    -2.821000000    -4.966000000
H    -0.500000000    -2.618000000    -4.058000000
H    -0.367000000    -2.090000000    -5.470000000
O     5.393000000    -3.361000000     1.778000000
H     6.060000000    -3.706000000     1.185000000
H     5.723000000    -2.500000000     2.036000000
O    -2.410000000    -0.688000000     6.742000000
H    -1.825000000    -1.417000000     6.532000000
H    -2.029000000     0.063000000     6.287000000
O     6.134000000    -0.505000000     1.501000000
H     6.448000000    -0.450000000     0.599000000
H     5.180000000    -0.467000000     1.426000000
O    -2.402000000    -0.213000000    -6.690000000
H    -2.895000000     0.381000000    -6.124000000
H    -3.040000000    -0.509000000    -7.340000000
O     7.366000000     0.610000000     3.718000000
H     7.174000000     0.255000000     2.850000000
H     7.216000000     1.551000000     3.631000000
O     2.819000000     4.614000000     1.179000000
H     2.800000000     5.431000000     0.681000000
H     2.737000000     3.928000000     0.517000000
O    -1.670000000    -2.692000000     3.854000000
H    -2.245000000    -2.785000000     3.094000000
H    -0.940000000    -3.285000000     3.676000000
O    -3.633000000     1.438000000    -4.861000000
H    -3.969000000     0.863000000    -4.173000000
H    -4.299000000     2.120000000    -4.948000000
O     1.523000000     3.815000000     3.443000000
H     0.884000000     4.503000000     3.629000000
H     1.899000000     4.060000000     2.597000000
O     0.223000000    -4.393000000     3.316000000
H     1.011000000    -4.107000000     2.854000000
H     0.548000000    -4.763000000     4.137000000
O     2.608000000     2.192000000     5.485000000
H     2.547000000     2.923000000     6.100000000
H     2.346000000     2.564000000     4.643000000
O    -0.007000000     1.443000000     3.846000000
H    -0.478000000     1.243000000     3.037000000
H     0.535000000     2.200000000     3.627000000
