161
-3034.20091
C     1.120000000    -0.616000000    -0.744000000
H     1.839000000    -1.220000000    -1.292000000
C    -0.169000000    -1.104000000    -0.648000000
H    -0.432000000    -2.072000000    -1.068000000
C    -1.159000000    -0.433000000     0.015000000
C    -2.505000000    -1.060000000     0.225000000
H    -3.354000000    -0.578000000    -0.263000000
H    -2.345000000    -2.085000000    -0.117000000
H    -2.644000000    -0.924000000     1.299000000
C    -0.849000000     0.770000000     0.686000000
H    -1.648000000     1.375000000     1.106000000
C     0.428000000     1.291000000     0.567000000
H     0.625000000     2.214000000     1.106000000
C     1.489000000     0.578000000    -0.088000000
C     2.860000000     1.147000000    -0.232000000
O     3.096000000     2.199000000     0.359000000
O     3.656000000     0.510000000    -0.913000000
O    -1.455000000     0.919000000    -2.663000000
H    -1.644000000     0.725000000    -1.744000000
H    -2.269000000     1.292000000    -3.001000000
O     0.918000000    -0.956000000     2.773000000
H     1.757000000    -0.636000000     2.441000000
H     0.282000000    -0.695000000     2.107000000
O     1.040000000    -4.330000000    -4.473000000
H     0.786000000    -5.207000000    -4.759000000
H     0.794000000    -4.299000000    -3.548000000
O    -5.401000000    -0.740000000    -1.827000000
H    -4.526000000    -0.774000000    -1.440000000
H    -5.995000000    -0.759000000    -1.077000000
O     0.615000000     0.227000000     5.518000000
H     0.584000000     0.491000000     4.599000000
H     0.911000000    -0.683000000     5.496000000
O     2.712000000     3.138000000     2.894000000
H     2.835000000     3.061000000     1.947000000
H     1.859000000     3.560000000     2.991000000
O    -1.214000000    -5.134000000     1.130000000
H    -1.670000000    -5.433000000     1.917000000
H    -1.906000000    -5.028000000     0.477000000
O     8.867000000     0.054000000     0.805000000
H     9.143000000     0.890000000     1.183000000
H     8.079000000     0.266000000     0.305000000
O     1.192000000    -1.109000000    -5.704000000
H     0.994000000    -2.027000000    -5.516000000
H     1.858000000    -0.872000000    -5.059000000
O    -5.995000000     2.432000000    -1.617000000
H    -6.600000000     3.171000000    -1.672000000
H    -6.558000000     1.659000000    -1.647000000
O    -3.800000000    -4.546000000     0.235000000
H    -4.426000000    -4.306000000    -0.448000000
H    -4.228000000    -4.291000000     1.052000000
O    -6.233000000    -3.299000000    -0.533000000
H    -6.670000000    -2.821000000    -1.238000000
H    -6.408000000    -2.780000000     0.252000000
O     0.000000000     5.311000000    -2.660000000
H     0.675000000     5.733000000    -3.191000000
H     0.477000000     4.676000000    -2.126000000
O     3.468000000     0.197000000     2.604000000
H     4.139000000     0.444000000     3.240000000
H     3.191000000     1.025000000     2.213000000
O     5.696000000     2.084000000     1.117000000
H     5.618000000     2.837000000     1.704000000
H     4.832000000     2.005000000     0.713000000
O    -2.177000000     6.059000000     0.996000000
H    -3.117000000     6.239000000     1.031000000
H    -2.004000000     5.534000000     1.778000000
O     1.417000000    -5.148000000     1.728000000
H     1.280000000    -5.994000000     2.154000000
H     0.534000000    -4.810000000     1.578000000
O     4.445000000     0.622000000    -6.091000000
H     4.167000000     0.396000000    -5.203000000
H     4.166000000     1.530000000    -6.205000000
O     4.170000000    -4.708000000     1.655000000
H     4.322000000    -3.985000000     1.047000000
H     3.225000000    -4.857000000     1.620000000
O     0.255000000     4.707000000     3.311000000
H    -0.698000000     4.706000000     3.401000000
H     0.415000000     5.122000000     2.463000000
O    -2.453000000     4.398000000     3.223000000
H    -2.946000000     3.661000000     2.863000000
H    -3.072000000     4.839000000     3.804000000
O     7.473000000     4.129000000    -0.836000000
H     6.848000000     3.586000000    -1.317000000
H     7.287000000     3.948000000     0.086000000
O    -3.775000000     2.052000000    -3.170000000
H    -3.897000000     2.624000000    -3.928000000
H    -4.600000000     2.115000000    -2.688000000
O     4.648000000    -2.704000000    -0.309000000
H     4.120000000    -1.905000000    -0.302000000
H     5.490000000    -2.437000000     0.061000000
O    -5.077000000     3.360000000     0.934000000
H    -4.839000000     4.276000000     0.790000000
H    -5.165000000     2.994000000     0.054000000
O     0.996000000     2.496000000    -3.113000000
H     1.199000000     3.005000000    -2.328000000
H     0.159000000     2.077000000    -2.917000000
O     0.792000000    -3.474000000     4.121000000
H     0.770000000    -4.191000000     3.487000000
H     0.899000000    -2.686000000     3.587000000
O    -3.341000000    -0.701000000    -4.582000000
H    -2.891000000    -0.400000000    -3.792000000
H    -2.886000000    -0.259000000    -5.299000000
O     8.427000000    -0.153000000    -2.849000000
H     8.098000000    -0.514000000    -3.672000000
H     7.639000000     0.102000000    -2.367000000
O     2.027000000     4.101000000    -0.986000000
H     1.511000000     4.583000000    -0.340000000
H     2.476000000     3.425000000    -0.478000000
O    -0.295000000    -5.383000000    -2.169000000
H    -0.379000000    -6.335000000    -2.205000000
H    -0.278000000    -5.179000000    -1.234000000
O    -5.286000000    -3.893000000     2.369000000
H    -6.186000000    -4.057000000     2.651000000
H    -4.982000000    -3.185000000     2.937000000
O    -1.960000000    -3.126000000     4.474000000
H    -1.014000000    -3.259000000     4.532000000
H    -2.194000000    -2.700000000     5.298000000
O     3.458000000     2.474000000     5.356000000
H     3.058000000     3.086000000     4.738000000
H     3.812000000     1.776000000     4.805000000
O    -3.188000000    -6.664000000    -1.925000000
H    -3.264000000    -5.992000000    -1.247000000
H    -2.338000000    -7.073000000    -1.761000000
O     2.852000000     0.378000000    -3.555000000
H     3.114000000     0.015000000    -2.709000000
H     2.199000000     1.043000000    -3.339000000
O    -3.102000000     1.812000000     4.433000000
H    -2.420000000     2.334000000     4.855000000
H    -3.395000000     1.206000000     5.113000000
O    -4.971000000     1.084000000     2.645000000
H    -4.975000000     1.851000000     2.074000000
H    -4.464000000     1.357000000     3.410000000
O    -5.255000000    -2.715000000    -3.815000000
H    -5.161000000    -2.185000000    -3.023000000
H    -4.741000000    -2.252000000    -4.476000000
O     6.223000000     0.102000000    -0.920000000
H     6.076000000     0.675000000    -0.168000000
H     5.466000000     0.252000000    -1.487000000
O    -3.080000000    -5.377000000     3.350000000
H    -3.920000000    -5.044000000     3.032000000
H    -2.671000000    -4.625000000     3.779000000
O    -6.634000000    -0.964000000     0.881000000
H    -7.549000000    -0.821000000     1.123000000
H    -6.143000000    -0.346000000     1.423000000
O    -1.462000000    -2.606000000    -5.710000000
H    -2.305000000    -2.260000000    -6.002000000
H    -1.361000000    -2.271000000    -4.819000000
O    -5.068000000    -1.468000000     3.563000000
H    -5.292000000    -0.571000000     3.317000000
H    -4.112000000    -1.495000000     3.527000000
O     1.501000000     5.970000000     1.047000000
H     1.362000000     6.856000000     1.383000000
H     2.425000000     5.952000000     0.796000000
O     5.478000000     4.108000000     2.896000000
H     5.826000000     4.609000000     3.634000000
H     4.632000000     3.783000000     3.204000000
O     5.308000000     2.767000000    -1.955000000
H     4.608000000     2.310000000    -1.489000000
H     4.990000000     2.840000000    -2.855000000
O    -6.015000000     0.518000000    -4.412000000
H    -5.843000000     0.325000000    -3.490000000
H    -5.216000000     0.247000000    -4.865000000
