161
-3070.32101
C     0.593000000    -1.358000000    -0.173000000
H     1.052000000    -2.342000000    -0.131000000
C    -0.565000000    -1.029000000     0.528000000
H    -0.874000000    -1.876000000     1.135000000
C    -1.086000000     0.254000000     0.539000000
C    -2.251000000     0.529000000     1.494000000
H    -3.061000000    -0.162000000     1.254000000
H    -1.788000000     0.315000000     2.460000000
H    -2.639000000     1.550000000     1.499000000
C    -0.430000000     1.280000000    -0.105000000
H    -0.827000000     2.292000000    -0.114000000
C     0.743000000     0.980000000    -0.824000000
H     1.208000000     1.823000000    -1.328000000
C     1.266000000    -0.311000000    -0.854000000
C     2.544000000    -0.574000000    -1.599000000
O     2.989000000     0.261000000    -2.310000000
O     3.125000000    -1.640000000    -1.465000000
O     0.359000000    -0.939000000    -4.717000000
H    -0.314000000    -1.231000000    -4.102000000
H     0.271000000     0.014000000    -4.732000000
O    -0.001000000    -0.561000000     5.152000000
H    -0.011000000     0.358000000     5.420000000
H     0.899000000    -0.717000000     4.866000000
O    -3.149000000    -0.535000000     4.528000000
H    -3.241000000     0.312000000     4.092000000
H    -2.204000000    -0.672000000     4.588000000
O    -2.431000000    -4.975000000     1.603000000
H    -3.001000000    -4.968000000     2.372000000
H    -1.571000000    -4.725000000     1.940000000
O    -3.115000000    -1.144000000    -1.797000000
H    -2.340000000    -1.327000000    -2.330000000
H    -3.058000000    -1.765000000    -1.072000000
O     4.605000000    -2.118000000     0.614000000
H     5.497000000    -2.241000000     0.290000000
H     4.098000000    -1.882000000    -0.162000000
O    -1.994000000    -4.192000000    -1.019000000
H    -1.801000000    -5.104000000    -0.804000000
H    -2.539000000    -3.885000000    -0.294000000
O     1.339000000    -4.925000000    -3.404000000
H     1.784000000    -4.283000000    -3.958000000
H     0.452000000    -4.973000000    -3.759000000
O    -3.708000000    -2.750000000     0.467000000
H    -4.429000000    -2.144000000     0.638000000
H    -3.747000000    -3.378000000     1.189000000
O    -0.946000000     2.898000000     4.007000000
H    -0.608000000     2.801000000     4.897000000
H    -0.244000000     2.566000000     3.447000000
O     4.880000000     1.995000000    -6.679000000
H     4.649000000     1.843000000    -7.595000000
H     4.049000000     1.923000000    -6.208000000
O    -0.644000000     6.221000000     2.897000000
H    -0.384000000     5.358000000     2.576000000
H    -1.432000000     6.436000000     2.397000000
O     5.270000000    -0.503000000    -5.184000000
H     4.357000000    -0.456000000    -4.899000000
H     5.635000000     0.352000000    -4.959000000
O     0.849000000     3.619000000    -3.494000000
H     1.690000000     3.478000000    -3.060000000
H     0.844000000     4.552000000    -3.708000000
O     4.389000000    -3.300000000     2.993000000
H     4.107000000    -4.185000000     2.762000000
H     4.549000000    -2.871000000     2.152000000
O    -2.080000000     4.189000000     0.364000000
H    -1.424000000     3.780000000     0.928000000
H    -1.683000000     5.017000000     0.096000000
O     0.163000000    -4.728000000     3.362000000
H     0.084000000    -5.252000000     4.159000000
H     0.960000000    -5.050000000     2.942000000
O    -1.573000000     1.625000000    -3.052000000
H    -1.106000000     2.356000000    -3.456000000
H    -0.971000000     1.296000000    -2.383000000
O     3.329000000     4.355000000    -5.282000000
H     3.077000000     4.879000000    -4.521000000
H     3.448000000     3.471000000    -4.934000000
O    -4.544000000     3.124000000    -1.172000000
H    -3.754000000     3.362000000    -0.687000000
H    -4.486000000     3.627000000    -1.985000000
O     4.688000000    -0.413000000     2.770000000
H     5.627000000    -0.347000000     2.944000000
H     4.618000000    -1.075000000     2.082000000
O     0.447000000     4.193000000     1.493000000
H     1.058000000     4.337000000     0.770000000
H     0.663000000     3.319000000     1.819000000
O     2.218000000    -4.320000000    -0.982000000
H     2.535000000    -3.417000000    -0.991000000
H     1.744000000    -4.415000000    -1.808000000
O    -7.008000000     0.061000000     1.124000000
H    -6.413000000    -0.112000000     0.394000000
H    -6.812000000     0.961000000     1.384000000
O     2.896000000     1.448000000    -4.826000000
H     3.019000000     0.996000000    -3.990000000
H     1.947000000     1.476000000    -4.946000000
O    -5.118000000     0.356000000    -1.278000000
H    -4.351000000    -0.168000000    -1.506000000
H    -4.787000000     1.252000000    -1.215000000
O    -1.240000000    -2.955000000     4.826000000
H    -0.704000000    -3.439000000     4.197000000
H    -0.812000000    -2.102000000     4.899000000
O     3.099000000     3.053000000    -2.408000000
H     4.048000000     3.163000000    -2.354000000
H     2.949000000     2.141000000    -2.159000000
O    -2.255000000     5.469000000     5.079000000
H    -1.932000000     6.052000000     4.392000000
H    -2.195000000     4.593000000     4.698000000
O     0.347000000     1.652000000    -5.274000000
H     0.396000000     2.505000000    -4.842000000
H    -0.282000000     1.780000000    -5.984000000
O    -3.683000000    -4.645000000     3.955000000
H    -2.925000000    -4.067000000     4.041000000
H    -4.393000000    -4.069000000     3.673000000
O     2.037000000    -3.161000000    -5.211000000
H     1.540000000    -2.344000000    -5.238000000
H     2.532000000    -3.168000000    -6.030000000
O    -1.136000000    -2.309000000    -3.005000000
H    -1.156000000    -2.597000000    -2.092000000
H    -1.033000000    -3.116000000    -3.509000000
O     0.939000000     1.802000000     2.403000000
H     1.655000000     1.173000000     2.501000000
H     0.365000000     1.409000000     1.745000000
O     4.328000000    -3.310000000    -3.207000000
H     3.502000000    -3.504000000    -3.650000000
H     4.124000000    -2.573000000    -2.631000000
O    -6.244000000     2.101000000     3.218000000
H    -6.167000000     2.677000000     2.458000000
H    -5.351000000     2.029000000     3.555000000
O    -5.005000000    -2.331000000     3.369000000
H    -4.399000000    -1.823000000     3.910000000
H    -5.790000000    -1.786000000     3.313000000
O    -4.433000000    -0.169000000     6.759000000
H    -4.165000000    -0.406000000     5.871000000
H    -3.631000000     0.144000000     7.176000000
O    -3.672000000     2.142000000     4.115000000
H    -3.870000000     2.131000000     5.051000000
H    -2.924000000     2.735000000     4.035000000
O     5.494000000     0.267000000    -1.492000000
H     5.393000000     1.134000000    -1.100000000
H     4.638000000     0.076000000    -1.876000000
O     4.460000000     3.110000000     1.389000000
H     5.054000000     2.387000000     1.186000000
H     4.166000000     2.933000000     2.282000000
O     2.159000000    -5.319000000     1.589000000
H     1.972000000    -4.832000000     0.787000000
H     3.113000000    -5.397000000     1.605000000
O     4.913000000    -5.716000000    -1.895000000
H     4.758000000    -4.815000000    -2.177000000
H     4.274000000    -6.233000000    -2.386000000
O     2.841000000     4.696000000    -0.089000000
H     2.633000000     4.247000000    -0.909000000
H     3.380000000     4.071000000     0.396000000
O     2.380000000    -2.140000000     4.441000000
H     2.827000000    -1.321000000     4.654000000
H     3.005000000    -2.619000000     3.897000000
O     7.662000000    -1.213000000    -0.522000000
H     7.775000000    -2.085000000    -0.900000000
H     6.823000000    -0.909000000    -0.869000000
O     5.673000000     3.498000000    -2.243000000
H     5.861000000     3.795000000    -1.353000000
H     6.534000000     3.327000000    -2.626000000
O    -6.487000000     3.015000000     0.760000000
H    -7.106000000     3.460000000     0.181000000
H    -5.696000000     2.912000000     0.231000000
