161
-3072.26355
C     1.261000000    -0.729000000    -0.274000000
H     2.131000000    -1.319000000    -0.550000000
C    -0.027000000    -1.099000000    -0.783000000
H    -0.128000000    -1.863000000    -1.549000000
C    -1.128000000    -0.363000000    -0.354000000
C    -2.498000000    -0.634000000    -0.930000000
H    -2.879000000     0.292000000    -1.365000000
H    -2.488000000    -1.319000000    -1.780000000
H    -3.173000000    -0.995000000    -0.151000000
C    -0.951000000     0.811000000     0.432000000
H    -1.828000000     1.381000000     0.728000000
C     0.328000000     1.158000000     0.956000000
H     0.482000000     2.046000000     1.563000000
C     1.392000000     0.297000000     0.655000000
C     2.803000000     0.679000000     1.020000000
O     2.967000000     1.459000000     1.903000000
O     3.744000000     0.204000000     0.475000000
O     1.414000000    -0.257000000    -5.456000000
H     1.602000000     0.013000000    -6.355000000
H     1.066000000    -1.145000000    -5.541000000
O    -4.575000000     2.537000000    -5.834000000
H    -3.914000000     2.075000000    -5.317000000
H    -5.235000000     1.872000000    -6.027000000
O    -6.180000000     0.159000000    -5.209000000
H    -6.652000000    -0.485000000    -5.737000000
H    -5.371000000    -0.286000000    -4.955000000
O    -1.224000000    -4.531000000    -1.194000000
H    -0.972000000    -4.581000000    -2.116000000
H    -2.135000000    -4.239000000    -1.210000000
O     7.260000000     4.193000000     1.222000000
H     7.337000000     4.939000000     1.818000000
H     6.358000000     3.893000000     1.330000000
O     0.746000000    -2.846000000    -5.564000000
H     1.184000000    -3.676000000    -5.374000000
H    -0.053000000    -3.098000000    -6.026000000
O    -5.440000000     1.236000000     0.144000000
H    -5.922000000     1.815000000     0.734000000
H    -4.703000000     1.766000000    -0.162000000
O     4.192000000    -5.227000000     0.128000000
H     3.245000000    -5.267000000     0.267000000
H     4.434000000    -4.337000000     0.384000000
O     3.210000000    -1.880000000     5.350000000
H     2.738000000    -1.986000000     4.524000000
H     2.577000000    -2.135000000     6.021000000
O     1.848000000     2.769000000     3.996000000
H     2.144000000     2.354000000     4.807000000
H     2.176000000     2.198000000     3.302000000
O     5.405000000     5.301000000     3.367000000
H     5.539000000     4.681000000     4.083000000
H     5.096000000     4.763000000     2.638000000
O     4.886000000    -1.161000000    -1.476000000
H     5.495000000    -0.427000000    -1.553000000
H     4.082000000    -0.771000000    -1.135000000
O    -1.126000000    -4.797000000    -4.148000000
H    -0.333000000    -5.105000000    -4.586000000
H    -1.656000000    -4.420000000    -4.851000000
O     0.072000000     6.045000000     4.518000000
H    -0.483000000     6.697000000     4.945000000
H    -0.542000000     5.471000000     4.060000000
O    -2.432000000     6.538000000     1.636000000
H    -2.191000000     5.622000000     1.505000000
H    -2.783000000     6.568000000     2.526000000
O     2.279000000     6.183000000    -0.378000000
H     2.623000000     5.307000000    -0.555000000
H     2.084000000     6.179000000     0.559000000
O    -4.226000000    -3.959000000    -4.743000000
H    -4.105000000    -3.110000000    -5.169000000
H    -4.177000000    -3.766000000    -3.807000000
O    -3.588000000    -0.956000000    -4.525000000
H    -3.276000000    -0.420000000    -5.253000000
H    -3.266000000    -0.508000000    -3.742000000
O    -3.790000000     0.006000000     2.533000000
H    -3.880000000    -0.907000000     2.804000000
H    -3.882000000    -0.016000000     1.581000000
O     4.406000000     3.668000000     1.412000000
H     4.221000000     2.745000000     1.587000000
H     3.996000000     3.838000000     0.564000000
O    -5.883000000    -1.741000000    -0.186000000
H    -6.600000000    -1.934000000    -0.790000000
H    -5.901000000    -0.789000000    -0.090000000
O    -4.090000000     4.523000000    -2.683000000
H    -4.609000000     4.646000000    -3.478000000
H    -3.434000000     3.870000000    -2.924000000
O    -1.003000000     4.251000000     0.630000000
H    -0.821000000     3.890000000     1.498000000
H    -0.257000000     3.976000000     0.096000000
O    -2.349000000     2.088000000    -4.241000000
H    -1.969000000     2.845000000    -4.688000000
H    -1.593000000     1.578000000    -3.950000000
O     4.451000000    -2.363000000     1.525000000
H     4.962000000    -2.188000000     2.315000000
H     4.388000000    -1.513000000     1.087000000
O     0.106000000     0.858000000    -3.341000000
H     0.735000000     0.552000000    -3.995000000
H     0.076000000     0.155000000    -2.691000000
O    -0.647000000     3.627000000     3.275000000
H    -1.222000000     3.104000000     3.833000000
H     0.238000000     3.361000000     3.525000000
O     6.802000000     0.894000000    -2.041000000
H     6.757000000     1.647000000    -2.631000000
H     7.704000000     0.584000000    -2.117000000
O     3.348000000     3.896000000    -1.208000000
H     2.476000000     3.705000000    -1.553000000
H     3.922000000     3.859000000    -1.973000000
O    -1.160000000    -3.254000000     1.206000000
H    -1.230000000    -4.089000000     1.668000000
H    -1.095000000    -3.496000000     0.282000000
O     3.378000000     0.858000000     6.069000000
H     3.139000000    -0.064000000     6.163000000
H     4.217000000     0.842000000     5.607000000
O    -4.022000000    -3.440000000     1.183000000
H    -3.183000000    -3.171000000     0.809000000
H    -4.677000000    -3.064000000     0.595000000
O    -0.188000000    -1.303000000     2.929000000
H    -0.412000000    -2.010000000     2.323000000
H    -0.047000000    -0.541000000     2.366000000
O     5.696000000     3.071000000     4.897000000
H     6.631000000     2.898000000     5.010000000
H     5.317000000     2.216000000     4.694000000
O     4.245000000    -3.294000000    -2.859000000
H     4.904000000    -3.873000000    -2.477000000
H     4.479000000    -2.422000000    -2.540000000
O    -2.394000000    -1.311000000     4.795000000
H    -1.853000000    -1.100000000     5.556000000
H    -1.772000000    -1.384000000     4.071000000
O    -2.449000000     1.672000000     4.555000000
H    -2.795000000     1.053000000     3.913000000
H    -2.764000000     1.345000000     5.398000000
O    -4.398000000     3.466000000     3.197000000
H    -3.988000000     3.315000000     2.346000000
H    -3.833000000     3.008000000     3.820000000
O    -4.077000000    -4.747000000    -1.916000000
H    -3.767000000    -5.475000000    -2.455000000
H    -5.021000000    -4.716000000    -2.075000000
O     6.314000000     0.189000000     1.098000000
H     6.767000000     0.509000000     0.318000000
H     5.384000000     0.285000000     0.891000000
O     1.869000000    -3.048000000     3.110000000
H     1.235000000    -2.351000000     2.944000000
H     2.521000000    -2.949000000     2.416000000
O    -4.557000000    -2.387000000     3.841000000
H    -4.201000000    -2.883000000     3.104000000
H    -3.790000000    -1.995000000     4.260000000
O     2.266000000    -5.119000000    -2.449000000
H     2.093000000    -5.384000000    -1.546000000
H     2.957000000    -4.460000000    -2.378000000
O     0.738000000     3.682000000    -2.069000000
H     0.841000000     4.113000000    -2.917000000
H     0.512000000     2.778000000    -2.285000000
O     4.798000000     1.039000000     3.693000000
H     4.109000000     1.382000000     3.125000000
H     5.499000000     0.784000000     3.093000000
O     1.898000000     5.540000000     2.333000000
H     2.650000000     4.971000000     2.495000000
H     1.305000000     5.366000000     3.064000000
O     6.673000000    -1.405000000     3.178000000
H     6.446000000    -0.803000000     2.469000000
H     7.319000000    -1.997000000     2.793000000
O    -3.769000000     3.505000000     0.028000000
H    -4.045000000     4.277000000    -0.467000000
H    -2.823000000     3.611000000     0.129000000
