161
-3085.69937
C     1.119000000    -0.472000000     0.886000000
H     2.102000000    -0.728000000     1.272000000
C     1.054000000    -0.625000000    -0.518000000
H     1.887000000    -1.015000000    -1.097000000
C    -0.103000000    -0.094000000    -1.204000000
C    -0.281000000    -0.238000000    -2.729000000
H    -1.299000000    -0.315000000    -3.117000000
H     0.341000000     0.406000000    -3.354000000
H     0.106000000    -1.222000000    -3.001000000
C    -1.098000000     0.393000000    -0.431000000
H    -1.978000000     0.749000000    -0.960000000
C    -1.079000000     0.474000000     0.928000000
H    -1.889000000     1.028000000     1.396000000
C     0.088000000     0.132000000     1.614000000
C     0.264000000     0.369000000     3.054000000
O    -0.558000000     1.094000000     3.674000000
O     1.323000000     0.072000000     3.591000000
O     0.839000000     2.466000000     8.105000000
H     1.351000000     1.660000000     8.165000000
H     0.308000000     2.355000000     7.316000000
O     3.744000000    -2.585000000     0.574000000
H     3.848000000    -2.148000000     1.419000000
H     3.922000000    -1.902000000    -0.072000000
O    -4.939000000    -0.501000000     5.571000000
H    -4.837000000    -1.450000000     5.495000000
H    -4.272000000    -0.141000000     4.987000000
O    -3.299000000     3.434000000    -0.887000000
H    -3.259000000     4.268000000    -0.420000000
H    -3.836000000     2.872000000    -0.329000000
O    -1.066000000     1.971000000     6.122000000
H    -1.875000000     2.479000000     6.185000000
H    -1.011000000     1.720000000     5.200000000
O    -3.220000000     0.504000000     3.708000000
H    -3.005000000    -0.354000000     3.342000000
H    -2.371000000     0.917000000     3.867000000
O    -0.784000000     5.252000000     4.405000000
H    -0.903000000     5.963000000     5.034000000
H     0.087000000     4.906000000     4.596000000
O    -1.752000000    -0.857000000     8.223000000
H    -1.210000000    -0.972000000     7.443000000
H    -2.522000000    -0.381000000     7.911000000
O    -5.398000000     2.411000000     3.474000000
H    -6.063000000     1.932000000     3.968000000
H    -4.691000000     1.778000000     3.348000000
O    -0.049000000    -4.128000000    -2.416000000
H     0.487000000    -4.492000000    -3.120000000
H     0.550000000    -4.052000000    -1.673000000
O     0.791000000     1.536000000    -6.107000000
H    -0.017000000     1.044000000    -5.961000000
H     0.510000000     2.450000000    -6.152000000
O     5.117000000     0.131000000     0.407000000
H     4.678000000     0.812000000    -0.101000000
H     4.695000000     0.161000000     1.265000000
O    -2.730000000    -1.942000000     2.941000000
H    -3.414000000    -2.597000000     3.080000000
H    -1.928000000    -2.453000000     2.832000000
O    -4.053000000    -1.751000000    -4.194000000
H    -4.250000000    -1.863000000    -3.264000000
H    -3.491000000    -2.495000000    -4.411000000
O     3.246000000    -2.870000000    -3.694000000
H     2.765000000    -2.098000000    -3.994000000
H     3.903000000    -2.523000000    -3.091000000
O    -1.011000000     5.812000000     0.192000000
H    -0.426000000     6.464000000     0.578000000
H    -0.766000000     4.989000000     0.616000000
O     3.322000000     3.495000000    -4.591000000
H     2.462000000     3.589000000    -4.181000000
H     3.674000000     4.385000000    -4.614000000
O     2.726000000    -3.323000000    -6.476000000
H     3.159000000    -3.256000000    -5.625000000
H     3.432000000    -3.528000000    -7.088000000
O     0.608000000     2.995000000    -0.096000000
H     0.588000000     3.133000000     0.851000000
H    -0.248000000     2.621000000    -0.303000000
O     3.826000000    -0.715000000     2.864000000
H     4.204000000    -0.943000000     3.714000000
H     3.034000000    -0.222000000     3.079000000
O     5.657000000    -4.605000000    -0.758000000
H     5.107000000    -3.827000000    -0.658000000
H     6.506000000    -4.345000000    -0.403000000
O    -4.707000000     1.417000000     0.352000000
H    -5.190000000     1.932000000     0.998000000
H    -5.015000000     0.520000000     0.482000000
O     0.164000000    -4.247000000    -5.911000000
H     1.088000000    -4.009000000    -5.982000000
H     0.012000000    -4.841000000    -6.647000000
O     3.818000000    -2.053000000     6.883000000
H     4.094000000    -2.939000000     7.117000000
H     3.127000000    -2.180000000     6.233000000
O    -0.517000000     3.517000000     2.261000000
H    -0.850000000     2.682000000     2.587000000
H    -0.711000000     4.142000000     2.960000000
O    -2.157000000    -3.995000000    -4.514000000
H    -1.453000000    -3.986000000    -5.163000000
H    -1.706000000    -3.972000000    -3.670000000
O     1.906000000    -4.417000000    -0.725000000
H     1.817000000    -5.233000000    -0.233000000
H     2.544000000    -3.905000000    -0.228000000
O     4.995000000    -1.797000000    -1.952000000
H     4.680000000    -0.902000000    -2.079000000
H     5.911000000    -1.769000000    -2.229000000
O    -0.489000000    -0.690000000     5.831000000
H    -0.104000000    -0.845000000     4.968000000
H    -0.670000000     0.250000000     5.846000000
O    -3.042000000     4.184000000     6.010000000
H    -3.226000000     4.658000000     6.821000000
H    -2.309000000     4.657000000     5.617000000
O     2.451000000     2.033000000     5.184000000
H     1.964000000     1.330000000     4.753000000
H     2.792000000     1.633000000     5.984000000
O     4.132000000     0.609000000    -3.140000000
H     4.023000000     1.515000000    -3.427000000
H     3.818000000     0.084000000    -3.876000000
O     0.351000000    -4.184000000     3.881000000
H    -0.462000000    -4.312000000     3.392000000
H     0.606000000    -5.064000000     4.157000000
O     2.811000000     4.357000000     2.292000000
H     2.167000000     4.458000000     2.993000000
H     2.423000000     4.810000000     1.543000000
O    -1.873000000    -3.813000000    -0.121000000
H    -1.202000000    -3.716000000    -0.796000000
H    -2.295000000    -2.955000000    -0.077000000
O    -4.331000000    -1.231000000     0.773000000
H    -3.549000000    -0.918000000     1.227000000
H    -5.056000000    -0.991000000     1.350000000
O     5.062000000     2.456000000     3.807000000
H     4.117000000     2.342000000     3.901000000
H     5.172000000     2.841000000     2.938000000
O     1.858000000    -2.372000000     4.999000000
H     1.681000000    -1.635000000     4.415000000
H     1.405000000    -3.112000000     4.595000000
O    -1.385000000    -0.168000000    -5.628000000
H    -1.709000000    -1.026000000    -5.900000000
H    -2.123000000     0.232000000    -5.168000000
O     3.245000000     2.174000000    -0.730000000
H     3.120000000     1.507000000    -1.406000000
H     2.378000000     2.565000000    -0.617000000
O    -5.467000000    -2.350000000    -1.655000000
H    -5.975000000    -3.054000000    -1.252000000
H    -4.978000000    -1.961000000    -0.930000000
O    -2.290000000     3.177000000    -3.257000000
H    -2.566000000     3.122000000    -2.342000000
H    -2.726000000     2.440000000    -3.684000000
O     2.718000000    -0.479000000    -5.314000000
H     1.925000000     0.014000000    -5.524000000
H     2.801000000    -1.112000000    -6.027000000
O    -3.753000000     0.975000000    -4.236000000
H    -3.610000000     0.137000000    -3.796000000
H    -4.696000000     1.005000000    -4.395000000
O     1.240000000     4.200000000    -2.681000000
H     1.068000000     3.772000000    -1.843000000
H     0.593000000     4.904000000    -2.728000000
O     2.851000000     0.571000000     7.825000000
H     3.091000000    -0.331000000     7.613000000
H     3.390000000     0.790000000     8.585000000
O     3.181000000    -5.353000000    -3.053000000
H     3.009000000    -5.330000000    -2.112000000
H     3.060000000    -4.448000000    -3.340000000
O     1.712000000     4.920000000     5.214000000
H     2.542000000     5.316000000     4.947000000
H     1.951000000     4.045000000     5.519000000
