161
-3041.87295
C    -0.287000000    -1.151000000     0.917000000
H    -0.608000000    -1.955000000     1.574000000
C    -0.767000000    -1.061000000    -0.359000000
H    -1.439000000    -1.825000000    -0.742000000
C    -0.496000000     0.103000000    -1.081000000
C    -0.975000000     0.342000000    -2.501000000
H    -0.132000000     0.452000000    -3.186000000
H    -1.453000000    -0.532000000    -2.949000000
H    -1.603000000     1.227000000    -2.619000000
C     0.375000000     1.043000000    -0.624000000
H     0.650000000     1.856000000    -1.291000000
C     0.905000000     0.923000000     0.658000000
H     1.548000000     1.706000000     1.052000000
C     0.561000000    -0.153000000     1.480000000
C     1.091000000    -0.286000000     2.858000000
O     1.950000000     0.483000000     3.255000000
O     0.686000000    -1.176000000     3.555000000
O    -0.792000000     5.566000000     1.335000000
H    -1.343000000     6.325000000     1.527000000
H    -1.390000000     4.930000000     0.941000000
O    -3.418000000    -5.782000000    -2.345000000
H    -2.862000000    -6.120000000    -3.048000000
H    -3.867000000    -5.032000000    -2.735000000
O    -1.801000000    -0.812000000     4.469000000
H    -0.869000000    -0.945000000     4.298000000
H    -2.002000000     0.029000000     4.059000000
O     4.291000000    -2.274000000    -3.950000000
H     3.369000000    -2.261000000    -3.693000000
H     4.410000000    -1.468000000    -4.452000000
O    -3.175000000     3.521000000    -2.939000000
H    -3.920000000     4.119000000    -3.010000000
H    -3.565000000     2.648000000    -2.976000000
O    -1.495000000     3.276000000     3.542000000
H    -0.704000000     3.814000000     3.527000000
H    -1.785000000     3.302000000     4.454000000
O     0.131000000     5.232000000    -1.422000000
H     0.419000000     6.115000000    -1.652000000
H    -0.581000000     5.367000000    -0.797000000
O    -2.705000000     0.862000000     2.212000000
H    -1.911000000     0.742000000     1.692000000
H    -2.783000000     1.810000000     2.317000000
O    -4.799000000     0.034000000     0.315000000
H    -5.595000000     0.344000000     0.747000000
H    -4.141000000     0.016000000     1.010000000
O    -4.192000000     1.109000000    -1.955000000
H    -3.309000000     0.739000000    -1.957000000
H    -4.554000000     0.860000000    -1.105000000
O     1.913000000    -2.408000000    -2.259000000
H     1.933000000    -2.941000000    -1.463000000
H     1.017000000    -2.495000000    -2.583000000
O    -0.842000000    -3.386000000    -3.349000000
H    -0.248000000    -3.832000000    -3.953000000
H    -0.633000000    -3.755000000    -2.491000000
O     0.129000000    -6.438000000     2.661000000
H    -0.557000000    -6.363000000     1.997000000
H    -0.111000000    -5.795000000     3.328000000
O    -1.842000000    -0.400000000     7.446000000
H    -1.268000000    -0.672000000     6.730000000
H    -1.518000000     0.464000000     7.698000000
O    -0.478000000     3.756000000    -3.648000000
H    -0.064000000     4.447000000    -3.130000000
H    -1.402000000     3.790000000    -3.398000000
O    -0.373000000    -4.356000000    -0.863000000
H    -0.557000000    -5.295000000    -0.882000000
H     0.497000000    -4.291000000    -0.469000000
O    -4.550000000    -5.135000000     0.441000000
H    -4.928000000    -4.293000000     0.186000000
H    -3.964000000    -5.363000000    -0.280000000
O     3.905000000    -0.413000000     4.911000000
H     3.221000000     0.074000000     4.451000000
H     3.902000000    -1.277000000     4.499000000
O     3.986000000    -3.048000000     3.935000000
H     4.743000000    -3.567000000     3.664000000
H     3.257000000    -3.403000000     3.426000000
O     0.491000000    -2.548000000     5.801000000
H    -0.057000000    -3.299000000     5.571000000
H     0.608000000    -2.076000000     4.977000000
O     6.129000000     2.977000000     2.753000000
H     5.506000000     2.432000000     2.272000000
H     6.814000000     2.369000000     3.029000000
O     4.296000000    -1.433000000     1.234000000
H     4.113000000    -1.800000000     0.369000000
H     3.686000000    -1.883000000     1.819000000
O    -0.990000000    -1.353000000    -6.410000000
H    -1.084000000    -1.348000000    -5.457000000
H    -0.057000000    -1.507000000    -6.557000000
O    -5.860000000     1.425000000    -4.202000000
H    -5.403000000     1.074000000    -4.967000000
H    -5.325000000     1.150000000    -3.457000000
O     2.283000000    -4.542000000    -0.278000000
H     2.966000000    -4.466000000     0.387000000
H     2.711000000    -4.983000000    -1.012000000
O     3.682000000     4.860000000    -3.682000000
H     4.107000000     4.795000000    -4.537000000
H     3.053000000     4.139000000    -3.671000000
O     3.051000000     3.440000000    -0.836000000
H     3.404000000     4.250000000    -1.204000000
H     2.625000000     3.007000000    -1.576000000
O    -3.037000000    -1.839000000    -4.011000000
H    -3.852000000    -2.324000000    -3.882000000
H    -2.347000000    -2.471000000    -3.809000000
O     1.888000000     0.949000000    -5.393000000
H     1.195000000     1.143000000    -6.023000000
H     2.175000000     0.064000000    -5.619000000
O     0.758000000     0.136000000     6.181000000
H     0.810000000    -0.792000000     5.951000000
H     1.008000000     0.596000000     5.380000000
O    -2.675000000     3.951000000    -0.178000000
H    -3.461000000     3.782000000     0.342000000
H    -2.864000000     3.561000000    -1.032000000
O     1.932000000     5.184000000     6.010000000
H     1.847000000     4.343000000     5.560000000
H     1.679000000     5.833000000     5.353000000
O     1.646000000     3.121000000     4.220000000
H     1.714000000     2.198000000     3.976000000
H     1.908000000     3.597000000     3.432000000
O     4.241000000    -0.953000000     7.790000000
H     3.530000000    -1.558000000     8.002000000
H     4.181000000    -0.835000000     6.842000000
O     2.033000000     4.228000000     1.482000000
H     2.335000000     3.895000000     0.637000000
H     1.222000000     4.694000000     1.280000000
O    -4.025000000    -2.196000000     4.667000000
H    -3.371000000    -1.553000000     4.942000000
H    -3.782000000    -2.416000000     3.768000000
O    -4.086000000     0.338000000    -5.988000000
H    -3.362000000    -0.072000000    -5.516000000
H    -4.523000000    -0.388000000    -6.433000000
O    -0.873000000    -4.577000000     4.733000000
H    -1.556000000    -4.370000000     4.096000000
H    -1.133000000    -5.422000000     5.098000000
O     4.574000000     1.362000000     1.261000000
H     4.148000000     1.464000000     0.410000000
H     4.220000000     0.544000000     1.609000000
O     4.541000000     3.918000000     5.010000000
H     3.711000000     3.454000000     4.902000000
H     5.045000000     3.692000000     4.227000000
O    -2.895000000    -4.737000000     2.989000000
H    -3.379000000    -4.987000000     2.202000000
H    -3.082000000    -5.435000000     3.617000000
O     3.706000000     0.375000000    -1.475000000
H     3.960000000    -0.546000000    -1.416000000
H     2.795000000     0.354000000    -1.769000000
O     2.141000000     2.352000000    -3.312000000
H     1.230000000     2.646000000    -3.324000000
H     2.266000000     1.923000000    -4.159000000
O    -0.352000000     2.107000000    -6.617000000
H    -1.133000000     2.296000000    -7.137000000
H    -0.610000000     2.305000000    -5.717000000
O     6.462000000     0.685000000     5.608000000
H     5.622000000     0.338000000     5.308000000
H     6.228000000     1.401000000     6.199000000
O     2.067000000    -2.523000000     8.006000000
H     1.479000000    -2.595000000     7.255000000
H     1.484000000    -2.442000000     8.761000000
O     1.898000000    -3.411000000     2.467000000
H     1.299000000    -3.435000000     1.721000000
H     1.526000000    -2.750000000     3.052000000
O    -5.671000000    -2.866000000    -0.284000000
H    -5.897000000    -2.690000000    -1.197000000
H    -5.236000000    -2.068000000     0.014000000
