161
-3035.67497
C    -0.644000000    -0.864000000     1.026000000
H    -1.083000000    -1.630000000     1.661000000
C    -0.333000000    -1.227000000    -0.258000000
H    -0.303000000    -2.274000000    -0.549000000
C     0.254000000    -0.351000000    -1.197000000
C     0.550000000    -0.838000000    -2.547000000
H     0.277000000    -0.142000000    -3.343000000
H     1.631000000    -0.980000000    -2.613000000
H     0.046000000    -1.759000000    -2.848000000
C     0.439000000     1.020000000    -0.782000000
H     0.744000000     1.804000000    -1.470000000
C     0.194000000     1.396000000     0.555000000
H     0.367000000     2.417000000     0.884000000
C    -0.303000000     0.432000000     1.507000000
C    -0.498000000     0.871000000     2.932000000
O    -0.206000000     2.002000000     3.383000000
O    -1.135000000     0.117000000     3.656000000
O    -1.661000000     3.560000000    -2.745000000
H    -1.977000000     2.820000000    -2.225000000
H    -1.165000000     4.094000000    -2.125000000
O    -1.299000000     1.292000000     6.187000000
H    -2.246000000     1.196000000     6.088000000
H    -0.961000000     1.271000000     5.292000000
O     0.930000000    -1.748000000    -5.987000000
H     1.300000000    -1.010000000    -6.473000000
H     0.815000000    -2.434000000    -6.645000000
O    -1.266000000     1.268000000     8.880000000
H    -2.080000000     1.768000000     8.938000000
H    -1.027000000     1.306000000     7.954000000
O    -3.453000000    -3.003000000     3.346000000
H    -2.796000000    -2.396000000     3.685000000
H    -3.934000000    -2.495000000     2.692000000
O    -4.604000000    -0.873000000     1.728000000
H    -4.376000000    -0.388000000     0.935000000
H    -4.491000000    -0.240000000     2.437000000
O    -0.876000000     5.728000000     2.663000000
H    -0.518000000     5.134000000     3.322000000
H    -1.703000000     5.324000000     2.401000000
O    -0.488000000     4.397000000    -5.412000000
H    -0.668000000     4.848000000    -4.587000000
H    -1.215000000     3.784000000    -5.513000000
O     2.416000000     3.728000000     5.751000000
H     3.083000000     3.046000000     5.681000000
H     2.377000000     3.931000000     6.685000000
O     1.912000000    -5.609000000    -2.082000000
H     1.120000000    -5.538000000    -2.613000000
H     2.571000000    -5.112000000    -2.567000000
O     2.690000000    -3.534000000    -4.020000000
H     2.749000000    -3.823000000    -4.930000000
H     2.124000000    -2.762000000    -4.050000000
O    -3.125000000     5.347000000     1.120000000
H    -2.933000000     5.620000000     0.223000000
H    -3.590000000     6.091000000     1.502000000
O    -2.464000000    -4.741000000     6.564000000
H    -2.422000000    -3.972000000     5.996000000
H    -3.324000000    -4.684000000     6.982000000
O    -1.560000000    -2.036000000     7.396000000
H    -2.090000000    -1.317000000     7.052000000
H    -2.107000000    -2.431000000     8.076000000
O    -1.907000000    -1.554000000    -5.493000000
H    -0.954000000    -1.626000000    -5.547000000
H    -2.165000000    -2.250000000    -4.888000000
O    -0.927000000    -5.026000000    -2.435000000
H    -1.288000000    -5.685000000    -1.842000000
H    -1.678000000    -4.483000000    -2.676000000
O     2.456000000     3.705000000    -0.763000000
H     2.884000000     3.223000000    -1.470000000
H     3.178000000     4.078000000    -0.256000000
O    -4.426000000    -3.264000000    -0.509000000
H    -4.890000000    -2.921000000    -1.273000000
H    -4.253000000    -4.180000000    -0.726000000
O    -0.168000000     4.902000000    -0.596000000
H     0.435000000     4.163000000    -0.677000000
H    -0.180000000     5.100000000     0.340000000
O    -0.485000000    -2.468000000     4.097000000
H    -0.872000000    -1.643000000     3.806000000
H    -0.238000000    -2.309000000     5.009000000
O     4.170000000     1.589000000     5.669000000
H     4.047000000     0.641000000     5.621000000
H     4.901000000     1.705000000     6.276000000
O    -3.227000000    -3.490000000    -3.753000000
H    -4.155000000    -3.269000000    -3.839000000
H    -3.213000000    -4.446000000    -3.699000000
O     3.527000000    -1.774000000     2.298000000
H     3.167000000    -1.022000000     1.827000000
H     2.850000000    -2.447000000     2.229000000
O     1.548000000     0.764000000    -6.683000000
H     1.440000000     1.648000000    -6.333000000
H     1.693000000     0.893000000    -7.620000000
O     0.069000000     4.415000000     4.790000000
H     0.760000000     4.316000000     5.445000000
H    -0.085000000     3.527000000     4.467000000
O     2.875000000     6.963000000    -1.267000000
H     3.607000000     7.261000000    -0.727000000
H     2.604000000     6.137000000    -0.867000000
O    -3.118000000    -0.741000000    -0.605000000
H    -2.233000000    -0.679000000    -0.247000000
H    -3.351000000    -1.665000000    -0.510000000
O     2.264000000     3.117000000     2.890000000
H     2.358000000     3.607000000     3.707000000
H     1.438000000     2.643000000     2.990000000
O     3.991000000    -1.652000000    -1.058000000
H     3.204000000    -2.184000000    -1.179000000
H     4.091000000    -1.584000000    -0.108000000
O     4.401000000     4.123000000     1.239000000
H     5.117000000     4.326000000     1.841000000
H     3.751000000     3.677000000     1.781000000
O    -4.083000000     1.372000000    -2.226000000
H    -4.704000000     1.840000000    -1.668000000
H    -3.951000000     0.533000000    -1.786000000
O    -1.386000000     5.480000000     6.863000000
H    -1.087000000     5.126000000     6.025000000
H    -1.795000000     4.737000000     7.305000000
O     4.104000000    -4.648000000     0.789000000
H     3.445000000    -4.155000000     1.278000000
H     4.022000000    -5.545000000     1.115000000
O    -3.148000000     0.794000000    -4.916000000
H    -3.366000000     0.738000000    -3.985000000
H    -2.531000000     0.077000000    -5.061000000
O    -2.472000000    -5.482000000     2.630000000
H    -2.777000000    -4.588000000     2.783000000
H    -2.544000000    -5.601000000     1.683000000
O    -3.787000000     0.919000000     3.599000000
H    -3.803000000     1.553000000     2.882000000
H    -2.859000000     0.722000000     3.725000000
O     1.675000000    -3.821000000     2.516000000
H     1.827000000    -4.694000000     2.877000000
H     0.905000000    -3.499000000     2.985000000
O     0.980000000    -1.544000000     6.257000000
H     1.259000000    -0.636000000     6.143000000
H     0.136000000    -1.481000000     6.703000000
O    -4.425000000    -0.579000000     7.621000000
H    -4.436000000     0.341000000     7.356000000
H    -5.044000000    -0.626000000     8.350000000
O     2.137000000     3.212000000    -5.290000000
H     1.360000000     3.765000000    -5.371000000
H     2.704000000     3.684000000    -4.680000000
O     3.691000000     0.697000000    -4.383000000
H     2.868000000     1.156000000    -4.552000000
H     3.460000000    -0.231000000    -4.416000000
O     4.436000000     2.398000000    -2.346000000
H     4.119000000     1.764000000    -2.990000000
H     5.385000000     2.410000000    -2.469000000
O     3.466000000     0.611000000     0.935000000
H     3.137000000     1.398000000     1.370000000
H     3.505000000     0.847000000     0.009000000
O     6.521000000    -1.307000000    -2.831000000
H     5.620000000    -1.454000000    -2.544000000
H     7.033000000    -1.306000000    -2.022000000
O    -4.098000000     1.699000000     6.231000000
H    -4.080000000     1.259000000     5.382000000
H    -4.516000000     2.542000000     6.056000000
O    -1.155000000     1.165000000    -7.990000000
H    -0.716000000     0.555000000    -7.398000000
H    -0.573000000     1.923000000    -8.029000000
O    -0.284000000    -7.089000000    -4.235000000
H    -0.717000000    -7.879000000    -3.913000000
H    -0.401000000    -6.448000000    -3.533000000
O    -4.079000000     2.639000000     1.580000000
H    -3.837000000     3.563000000     1.643000000
H    -4.694000000     2.601000000     0.848000000
