161
-3003.80363
C     0.896000000    -0.538000000     1.120000000
H     1.579000000    -0.915000000     1.877000000
C     1.099000000    -0.629000000    -0.251000000
H     2.030000000    -1.033000000    -0.640000000
C     0.141000000    -0.129000000    -1.223000000
C     0.433000000    -0.281000000    -2.705000000
H     1.504000000    -0.284000000    -2.914000000
H    -0.098000000    -1.150000000    -3.099000000
H     0.096000000     0.581000000    -3.285000000
C    -1.070000000     0.365000000    -0.764000000
H    -1.803000000     0.826000000    -1.422000000
C    -1.118000000     0.594000000     0.607000000
H    -1.982000000     1.115000000     1.012000000
C    -0.227000000     0.107000000     1.548000000
C    -0.445000000     0.352000000     2.996000000
O    -1.482000000     0.789000000     3.297000000
O     0.449000000     0.231000000     3.852000000
O    -2.589000000    -3.212000000    -3.715000000
H    -1.639000000    -3.303000000    -3.641000000
H    -2.761000000    -3.264000000    -4.656000000
O    -0.253000000    -1.789000000     5.354000000
H    -0.153000000    -1.004000000     4.815000000
H     0.032000000    -1.519000000     6.227000000
O    -2.842000000    -0.975000000     7.094000000
H    -2.737000000    -0.028000000     7.185000000
H    -2.998000000    -1.111000000     6.160000000
O    -0.166000000    -4.847000000     2.238000000
H     0.611000000    -5.312000000     2.551000000
H    -0.342000000    -5.226000000     1.377000000
O    -1.915000000     1.879000000     5.689000000
H    -1.006000000     2.082000000     5.906000000
H    -1.861000000     1.377000000     4.875000000
O     1.956000000     3.113000000    -5.059000000
H     1.040000000     3.169000000    -4.789000000
H     2.022000000     2.269000000    -5.507000000
O    -3.140000000     4.266000000    -1.633000000
H    -2.348000000     4.269000000    -1.094000000
H    -3.822000000     4.612000000    -1.057000000
O     0.522000000     2.426000000     5.896000000
H     0.853000000     1.594000000     5.558000000
H     1.305000000     2.960000000     6.026000000
O     2.040000000     5.000000000     5.428000000
H     2.127000000     4.585000000     4.570000000
H     1.668000000     5.862000000     5.241000000
O    -3.099000000     4.881000000    -4.161000000
H    -2.763000000     5.741000000    -3.910000000
H    -3.218000000     4.419000000    -3.332000000
O     5.407000000     0.131000000    -4.395000000
H     6.105000000    -0.063000000    -5.020000000
H     5.228000000    -0.707000000    -3.968000000
O     0.950000000    -3.604000000    -0.594000000
H     0.493000000    -3.703000000    -1.429000000
H     0.558000000    -2.826000000    -0.197000000
O     3.009000000     0.781000000     3.377000000
H     2.055000000     0.738000000     3.442000000
H     3.256000000    -0.029000000     2.931000000
O    -2.813000000    -1.237000000     4.235000000
H    -2.221000000    -0.577000000     3.875000000
H    -2.234000000    -1.883000000     4.639000000
O     0.245000000    -0.950000000     8.040000000
H    -0.054000000    -1.539000000     8.733000000
H    -0.244000000    -0.141000000     8.187000000
O     6.077000000    -0.548000000     0.828000000
H     5.954000000     0.164000000     1.455000000
H     5.476000000    -0.343000000     0.111000000
O     2.328000000     4.239000000     1.523000000
H     2.413000000     3.726000000     0.720000000
H     1.741000000     3.723000000     2.076000000
O     0.617000000    -3.619000000    -6.508000000
H    -0.262000000    -3.977000000    -6.627000000
H     0.848000000    -3.261000000    -7.365000000
O    -3.401000000    -1.849000000    -0.550000000
H    -2.874000000    -2.630000000    -0.383000000
H    -2.760000000    -1.145000000    -0.656000000
O    -2.419000000     4.303000000     1.979000000
H    -2.747000000     5.144000000     1.659000000
H    -3.203000000     3.834000000     2.264000000
O     1.576000000    -6.272000000    -0.025000000
H     1.495000000    -5.319000000    -0.071000000
H     2.165000000    -6.497000000    -0.745000000
O     4.648000000    -2.480000000    -2.922000000
H     5.589000000    -2.650000000    -2.969000000
H     4.248000000    -3.350000000    -2.917000000
O     3.237000000    -2.168000000     3.436000000
H     3.444000000    -2.425000000     2.538000000
H     2.490000000    -2.717000000     3.677000000
O     4.973000000     2.046000000     4.497000000
H     4.407000000     1.652000000     3.834000000
H     4.383000000     2.255000000     5.222000000
O    -6.108000000     1.846000000    -4.016000000
H    -5.581000000     2.482000000    -3.532000000
H    -6.967000000     2.260000000    -4.099000000
O     5.925000000    -1.936000000     4.472000000
H     4.981000000    -1.827000000     4.354000000
H     6.192000000    -1.174000000     4.986000000
O     1.756000000     2.488000000    -0.840000000
H     1.875000000     1.552000000    -0.681000000
H     2.377000000     2.693000000    -1.539000000
O     3.505000000     4.617000000    -2.220000000
H     4.250000000     5.102000000    -2.574000000
H     3.649000000     3.715000000    -2.504000000
O    -2.486000000     1.374000000    -6.084000000
H    -1.744000000     0.953000000    -6.517000000
H    -2.247000000     1.386000000    -5.157000000
O    -4.096000000     3.215000000     5.126000000
H    -3.298000000     2.877000000     5.531000000
H    -4.144000000     2.769000000     4.281000000
O     3.196000000    -3.649000000     1.180000000
H     2.625000000    -3.260000000     0.517000000
H     3.772000000    -4.234000000     0.688000000
O    -1.745000000     4.757000000     6.945000000
H    -1.331000000     4.408000000     6.155000000
H    -1.036000000     4.806000000     7.586000000
O     3.743000000     2.092000000    -3.264000000
H     3.080000000     2.108000000    -3.953000000
H     4.546000000     1.822000000    -3.710000000
O    -6.915000000     0.529000000    -1.004000000
H    -6.746000000    -0.409000000    -1.085000000
H    -6.134000000     0.946000000    -1.370000000
O     0.341000000    -3.541000000    -3.531000000
H     0.483000000    -4.424000000    -3.872000000
H     0.957000000    -2.994000000    -4.018000000
O     2.145000000     0.572000000    -5.778000000
H     2.316000000    -0.326000000    -5.495000000
H     2.653000000     0.670000000    -6.584000000
O    -0.431000000     4.027000000    -0.900000000
H     0.314000000     3.426000000    -0.899000000
H    -0.517000000     4.303000000     0.013000000
O    -3.812000000     2.293000000     2.730000000
H    -4.308000000     1.804000000     2.074000000
H    -3.151000000     1.676000000     3.041000000
O    -0.812000000     3.005000000    -3.952000000
H    -1.437000000     3.604000000    -4.360000000
H    -0.722000000     3.328000000    -3.055000000
O     4.033000000     0.076000000    -1.306000000
H     3.908000000     0.708000000    -2.013000000
H     3.771000000    -0.763000000    -1.685000000
O    -2.377000000    -1.592000000    -7.194000000
H    -2.071000000    -2.458000000    -7.461000000
H    -1.714000000    -1.283000000    -6.576000000
O     1.217000000    -3.654000000     4.257000000
H     0.809000000    -2.890000000     4.666000000
H     0.515000000    -4.055000000     3.745000000
O    -0.281000000    -0.222000000    -6.358000000
H     0.147000000    -0.782000000    -7.006000000
H     0.429000000     0.301000000    -5.988000000
O    -5.501000000    -0.831000000    -4.319000000
H    -5.714000000    -0.075000000    -3.772000000
H    -4.721000000    -1.209000000    -3.913000000
O    -5.914000000    -1.878000000    -1.184000000
H    -6.216000000    -2.489000000    -1.856000000
H    -4.964000000    -1.999000000    -1.161000000
O     2.462000000    -2.005000000    -5.442000000
H     3.356000000    -2.301000000    -5.271000000
H     2.023000000    -2.769000000    -5.814000000
O     0.145000000     3.609000000     2.936000000
H    -0.542000000     4.248000000     2.751000000
H    -0.323000000     2.786000000     3.075000000
O    -4.531000000    -1.210000000     2.085000000
H    -3.733000000    -1.235000000     2.613000000
H    -4.237000000    -1.418000000     1.198000000
