161
-3029.78720
C     0.876000000    -0.931000000     0.728000000
H     1.553000000    -1.693000000     1.106000000
C     0.834000000    -0.804000000    -0.653000000
H     1.433000000    -1.409000000    -1.328000000
C    -0.015000000     0.151000000    -1.165000000
C    -0.010000000     0.361000000    -2.665000000
H     0.563000000    -0.403000000    -3.195000000
H    -1.020000000     0.332000000    -3.081000000
H     0.527000000     1.276000000    -2.923000000
C    -0.818000000     0.922000000    -0.390000000
H    -1.558000000     1.515000000    -0.923000000
C    -0.802000000     0.807000000     0.994000000
H    -1.465000000     1.443000000     1.576000000
C     0.023000000    -0.166000000     1.546000000
C    -0.020000000    -0.371000000     3.078000000
O    -0.559000000     0.391000000     3.809000000
O     0.461000000    -1.425000000     3.489000000
O    -0.728000000    -3.183000000    -1.957000000
H    -0.731000000    -2.935000000    -2.882000000
H    -0.683000000    -2.351000000    -1.486000000
O     1.959000000    -3.367000000     4.435000000
H     1.545000000    -2.509000000     4.344000000
H     2.859000000    -3.171000000     4.696000000
O     3.869000000    -3.188000000     0.231000000
H     3.381000000    -3.424000000    -0.557000000
H     4.709000000    -3.637000000     0.137000000
O    -2.929000000     1.271000000     4.497000000
H    -2.713000000     1.492000000     5.403000000
H    -2.115000000     0.919000000     4.136000000
O    -1.137000000    -2.459000000     5.488000000
H    -0.617000000    -1.997000000     4.831000000
H    -0.585000000    -2.464000000     6.271000000
O     3.497000000    -0.105000000     6.137000000
H     3.735000000     0.438000000     6.888000000
H     2.541000000    -0.148000000     6.166000000
O    -1.265000000     3.369000000    -4.193000000
H    -1.440000000     2.693000000    -4.848000000
H    -0.435000000     3.106000000    -3.794000000
O     0.842000000    -0.204000000     6.195000000
H     0.373000000    -0.136000000     5.363000000
H     0.152000000    -0.215000000     6.858000000
O    -4.024000000     1.722000000     1.955000000
H    -3.803000000     1.874000000     2.873000000
H    -3.592000000     0.896000000     1.738000000
O     4.219000000     2.003000000     1.240000000
H     3.771000000     1.489000000     1.913000000
H     5.112000000     2.100000000     1.569000000
O    -3.511000000    -0.771000000     0.665000000
H    -2.665000000    -1.204000000     0.781000000
H    -3.773000000    -0.995000000    -0.228000000
O    -1.852000000     1.604000000    -6.054000000
H    -1.574000000     1.729000000    -6.961000000
H    -1.936000000     0.655000000    -5.958000000
O     1.731000000    -2.965000000    -6.642000000
H     2.101000000    -3.847000000    -6.684000000
H     2.477000000    -2.385000000    -6.794000000
O    -5.378000000    -0.096000000     4.604000000
H    -4.559000000     0.398000000     4.575000000
H    -5.104000000    -1.009000000     4.689000000
O     3.303000000     2.518000000    -4.349000000
H     3.340000000     1.745000000    -4.913000000
H     3.639000000     2.216000000    -3.506000000
O     3.584000000     0.048000000     3.210000000
H     3.442000000    -0.052000000     4.151000000
H     4.248000000    -0.608000000     2.997000000
O    -3.957000000    -2.580000000     5.692000000
H    -3.012000000    -2.524000000     5.834000000
H    -4.047000000    -3.049000000     4.862000000
O    -0.204000000     6.510000000     0.514000000
H    -0.827000000     6.023000000    -0.025000000
H    -0.674000000     7.306000000     0.764000000
O    -1.954000000    -1.579000000    -5.559000000
H    -1.537000000    -2.203000000    -4.965000000
H    -1.228000000    -1.064000000    -5.913000000
O    -1.908000000    -5.142000000     4.475000000
H    -1.666000000    -5.793000000     5.133000000
H    -1.461000000    -4.343000000     4.753000000
O     1.289000000    -5.444000000    -3.278000000
H     0.576000000    -4.808000000    -3.346000000
H     2.085000000    -4.913000000    -3.283000000
O     5.835000000    -1.294000000    -3.059000000
H     6.698000000    -0.897000000    -2.937000000
H     5.337000000    -1.026000000    -2.287000000
O     4.375000000    -2.358000000     5.133000000
H     4.194000000    -1.606000000     5.695000000
H     5.311000000    -2.294000000     4.940000000
O     1.181000000    -5.215000000     6.153000000
H     1.663000000    -4.873000000     6.906000000
H     1.386000000    -4.610000000     5.441000000
O    -4.324000000    -1.113000000    -2.116000000
H    -5.058000000    -1.727000000    -2.096000000
H    -4.307000000    -0.789000000    -3.016000000
O     1.368000000    -5.916000000     3.011000000
H     0.614000000    -5.645000000     2.488000000
H     1.589000000    -5.143000000     3.531000000
O     0.813000000     4.022000000    -1.555000000
H     1.492000000     3.720000000    -2.159000000
H     1.292000000     4.280000000    -0.767000000
O    -2.887000000    -5.026000000    -1.411000000
H    -3.633000000    -4.740000000    -1.939000000
H    -2.247000000    -4.319000000    -1.499000000
O     3.978000000    -3.704000000    -3.120000000
H     4.805000000    -3.690000000    -2.637000000
H     4.165000000    -3.227000000    -3.928000000
O     1.868000000     4.872000000    -4.340000000
H     2.478000000     4.135000000    -4.316000000
H     2.033000000     5.292000000    -5.184000000
O     4.813000000    -4.692000000     2.448000000
H     5.175000000    -5.303000000     1.807000000
H     4.042000000    -4.321000000     2.017000000
O     2.964000000     4.148000000     0.159000000
H     3.165000000     3.309000000     0.572000000
H     3.657000000     4.736000000     0.460000000
O    -1.653000000     4.039000000     3.597000000
H    -1.997000000     4.178000000     2.715000000
H    -2.394000000     3.691000000     4.092000000
O    -1.928000000     5.187000000    -1.102000000
H    -1.096000000     4.746000000    -1.270000000
H    -2.569000000     4.694000000    -1.614000000
O    -0.582000000    -5.092000000     0.521000000
H    -0.312000000    -5.971000000     0.255000000
H    -0.788000000    -4.646000000    -0.301000000
O    -1.557000000    -2.641000000     1.907000000
H    -1.469000000    -3.464000000     1.426000000
H    -0.834000000    -2.651000000     2.534000000
O    -0.098000000    -3.524000000    -4.839000000
H    -0.284000000    -4.382000000    -5.222000000
H     0.334000000    -3.037000000    -5.541000000
O    -1.735000000     5.891000000    -4.179000000
H    -0.895000000     6.250000000    -4.465000000
H    -1.610000000     4.943000000    -4.198000000
O    -3.694000000     3.670000000    -2.725000000
H    -3.046000000     3.562000000    -3.421000000
H    -4.535000000     3.691000000    -3.182000000
O     5.243000000    -0.310000000    -0.296000000
H     4.490000000    -0.875000000    -0.124000000
H     5.144000000     0.417000000     0.319000000
O    -3.534000000     4.382000000     1.295000000
H    -3.827000000     3.498000000     1.514000000
H    -4.169000000     4.692000000     0.649000000
O    -4.782000000    -0.501000000    -4.891000000
H    -4.892000000     0.075000000    -5.648000000
H    -3.998000000    -1.013000000    -5.091000000
O     0.059000000    -0.628000000    -6.902000000
H     0.102000000     0.014000000    -7.611000000
H     0.908000000    -1.069000000    -6.926000000
O    -5.497000000     2.006000000    -0.428000000
H    -5.037000000     1.995000000     0.411000000
H    -5.038000000     1.357000000    -0.962000000
O     4.374000000     0.012000000    -5.075000000
H     4.837000000    -0.307000000    -4.300000000
H     4.159000000    -0.779000000    -5.568000000
O     1.106000000     3.105000000     3.753000000
H     0.181000000     3.225000000     3.536000000
H     1.331000000     2.254000000     3.376000000
O     4.613000000     1.945000000    -1.972000000
H     4.022000000     2.422000000    -1.388000000
H     4.808000000     1.134000000    -1.504000000
O    -4.183000000    -2.356000000     2.904000000
H    -4.124000000    -1.990000000     2.022000000
H    -3.310000000    -2.710000000     3.075000000
