161
-3060.80010
C     0.826000000    -0.754000000     1.026000000
H     1.388000000    -1.334000000     1.754000000
C     0.975000000    -0.874000000    -0.346000000
H     1.753000000    -1.519000000    -0.745000000
C     0.169000000    -0.151000000    -1.232000000
C     0.388000000    -0.099000000    -2.750000000
H     1.272000000    -0.712000000    -2.935000000
H    -0.528000000    -0.485000000    -3.201000000
H     0.444000000     0.951000000    -3.045000000
C    -0.808000000     0.664000000    -0.706000000
H    -1.420000000     1.274000000    -1.366000000
C    -0.871000000     0.891000000     0.654000000
H    -1.602000000     1.584000000     1.065000000
C    -0.158000000     0.064000000     1.576000000
C    -0.533000000     0.131000000     3.033000000
O    -1.439000000     0.854000000     3.370000000
O     0.151000000    -0.482000000     3.842000000
O    -3.116000000    -1.480000000    -5.948000000
H    -3.976000000    -1.811000000    -5.689000000
H    -2.499000000    -1.962000000    -5.397000000
O     0.362000000     1.678000000     5.940000000
H     0.222000000     1.271000000     5.085000000
H    -0.515000000     1.742000000     6.321000000
O     1.806000000    -6.111000000    -3.206000000
H     1.356000000    -6.128000000    -4.052000000
H     1.575000000    -5.262000000    -2.829000000
O    -3.680000000    -4.080000000     3.494000000
H    -3.594000000    -4.725000000     2.792000000
H    -3.051000000    -3.395000000     3.269000000
O     4.459000000    -4.110000000    -2.960000000
H     4.358000000    -4.849000000    -2.360000000
H     4.786000000    -3.398000000    -2.410000000
O    -3.164000000    -1.516000000     1.889000000
H    -3.812000000    -1.075000000     1.340000000
H    -3.207000000    -1.056000000     2.728000000
O    -2.741000000     1.561000000    -6.100000000
H    -2.283000000     0.811000000    -5.721000000
H    -3.501000000     1.690000000    -5.533000000
O     0.829000000     3.870000000     2.559000000
H    -0.116000000     3.924000000     2.418000000
H     1.072000000     4.735000000     2.889000000
O    -6.134000000     0.189000000     2.652000000
H    -6.408000000    -0.712000000     2.479000000
H    -5.542000000     0.120000000     3.401000000
O     0.088000000    -1.771000000     6.304000000
H     0.045000000    -1.362000000     5.439000000
H     0.955000000    -1.537000000     6.635000000
O     2.474000000    -3.113000000    -4.985000000
H     3.190000000    -3.263000000    -4.368000000
H     2.619000000    -2.224000000    -5.309000000
O     1.051000000     4.093000000     7.083000000
H     1.012000000     3.299000000     6.550000000
H     1.975000000     4.342000000     7.076000000
O    -2.298000000    -3.338000000    -3.196000000
H    -2.617000000    -2.464000000    -2.973000000
H    -2.918000000    -3.934000000    -2.777000000
O     2.615000000    -0.948000000     6.861000000
H     2.323000000    -0.260000000     6.263000000
H     3.502000000    -0.689000000     7.109000000
O    -5.243000000     2.681000000     2.308000000
H    -5.656000000     1.818000000     2.321000000
H    -4.373000000     2.535000000     2.679000000
O    -4.497000000     0.233000000    -0.380000000
H    -4.759000000     1.139000000    -0.548000000
H    -5.188000000    -0.116000000     0.182000000
O    -3.979000000     3.338000000    -3.699000000
H    -4.236000000     2.494000000    -3.326000000
H    -3.285000000     3.654000000    -3.119000000
O    -2.498000000     4.733000000     0.791000000
H    -3.343000000     5.003000000     0.432000000
H    -2.716000000     4.289000000     1.610000000
O    -0.683000000    -3.345000000     2.986000000
H    -0.341000000    -3.005000000     2.159000000
H    -0.751000000    -2.575000000     3.552000000
O     2.948000000     1.360000000    -4.725000000
H     3.478000000     0.586000000    -4.537000000
H     2.603000000     1.206000000    -5.605000000
O     5.115000000    -0.219000000    -4.265000000
H     5.827000000    -0.162000000    -4.902000000
H     5.500000000    -0.672000000    -3.515000000
O    -2.006000000    -2.190000000     8.332000000
H    -2.022000000    -1.409000000     8.885000000
H    -1.314000000    -2.018000000     7.694000000
O     3.259000000    -5.137000000    -0.580000000
H     2.694000000    -4.408000000    -0.837000000
H     2.831000000    -5.512000000     0.190000000
O     1.168000000    -5.459000000     3.394000000
H     0.364000000    -4.940000000     3.399000000
H     1.125000000    -5.975000000     4.199000000
O     3.684000000     1.776000000    -1.470000000
H     3.593000000     1.615000000    -2.409000000
H     2.825000000     2.100000000    -1.199000000
O    -5.020000000     3.331000000     5.248000000
H    -4.728000000     2.622000000     4.676000000
H    -5.606000000     3.854000000     4.701000000
O    -2.489000000     2.550000000     6.939000000
H    -3.414000000     2.607000000     6.697000000
H    -2.494000000     2.158000000     7.812000000
O     0.279000000    -3.730000000    -2.125000000
H    -0.632000000    -3.744000000    -2.419000000
H     0.226000000    -3.830000000    -1.175000000
O     3.035000000     2.027000000     5.663000000
H     2.986000000     2.087000000     4.709000000
H     2.122000000     1.984000000     5.948000000
O     0.910000000     3.278000000    -3.938000000
H     0.242000000     3.016000000    -4.572000000
H     1.656000000     2.709000000    -4.128000000
O    -2.724000000     3.209000000     3.325000000
H    -2.680000000     3.454000000     4.250000000
H    -2.287000000     2.359000000     3.281000000
O    -1.303000000    -4.663000000    -5.728000000
H    -0.402000000    -4.958000000    -5.856000000
H    -1.293000000    -4.226000000    -4.876000000
O     1.285000000     3.182000000    -0.030000000
H     1.446000000     3.508000000     0.856000000
H     0.559000000     2.566000000     0.070000000
O     5.504000000    -2.138000000    -1.522000000
H     6.341000000    -1.687000000    -1.628000000
H     5.098000000    -1.717000000    -0.764000000
O    -4.058000000     0.679000000     4.186000000
H    -3.936000000     0.284000000     5.049000000
H    -3.186000000     0.664000000     3.791000000
O     2.741000000    -1.141000000     4.038000000
H     1.813000000    -0.908000000     4.012000000
H     2.755000000    -2.026000000     4.403000000
O     3.547000000    -3.909000000     4.889000000
H     2.716000000    -4.382000000     4.947000000
H     4.066000000    -4.412000000     4.261000000
O    -5.343000000     2.887000000    -0.744000000
H    -5.548000000     3.755000000    -1.092000000
H    -5.336000000     3.005000000     0.206000000
O    -0.484000000     2.885000000    -7.108000000
H    -0.685000000     3.543000000    -7.774000000
H    -1.334000000     2.511000000    -6.878000000
O    -1.922000000    -3.241000000     0.088000000
H    -2.398000000    -3.054000000     0.897000000
H    -1.561000000    -2.396000000    -0.179000000
O     1.234000000     0.954000000    -6.830000000
H     0.684000000     1.718000000    -7.003000000
H     1.321000000     0.525000000    -7.681000000
O    -5.240000000     0.709000000    -3.837000000
H    -5.879000000     0.087000000    -3.488000000
H    -5.700000000     1.549000000    -3.839000000
O     3.096000000     2.571000000     3.046000000
H     3.727000000     3.259000000     2.832000000
H     2.271000000     2.878000000     2.670000000
O     4.936000000     0.111000000     0.552000000
H     4.096000000     0.432000000     0.222000000
H     4.832000000     0.103000000     1.504000000
O     4.755000000     0.516000000     3.294000000
H     4.154000000    -0.188000000     3.537000000
H     4.192000000     1.280000000     3.172000000
O    -1.998000000     4.349000000    -1.791000000
H    -1.349000000     3.671000000    -1.978000000
H    -1.869000000     4.557000000    -0.866000000
O     2.003000000     5.125000000    -1.928000000
H     1.990000000     4.461000000    -1.238000000
H     1.534000000     4.721000000    -2.658000000
O    -3.360000000    -0.739000000    -2.830000000
H    -4.063000000    -0.462000000    -3.417000000
H    -3.436000000    -0.157000000    -2.074000000
