161
-3049.32562
C     1.493000000    -0.172000000     0.178000000
H     2.554000000    -0.302000000     0.377000000
C     0.787000000    -0.544000000    -0.952000000
H     1.334000000    -0.939000000    -1.804000000
C    -0.561000000    -0.305000000    -1.065000000
C    -1.439000000    -0.573000000    -2.294000000
H    -1.428000000     0.275000000    -2.983000000
H    -0.942000000    -1.409000000    -2.790000000
H    -2.488000000    -0.742000000    -2.039000000
C    -1.231000000     0.391000000     0.008000000
H    -2.296000000     0.573000000    -0.107000000
C    -0.548000000     0.705000000     1.180000000
H    -1.105000000     1.141000000     2.005000000
C     0.778000000     0.317000000     1.297000000
C     1.502000000     0.481000000     2.620000000
O     0.862000000     0.597000000     3.674000000
O     2.736000000     0.511000000     2.688000000
O    -5.208000000    -0.744000000    -0.552000000
H    -5.097000000    -0.435000000     0.347000000
H    -5.693000000    -1.564000000    -0.465000000
O     5.202000000    -0.015000000     2.527000000
H     4.256000000    -0.159000000     2.493000000
H     5.523000000    -0.326000000     1.681000000
O     5.341000000    -1.629000000    -2.265000000
H     4.866000000    -2.269000000    -1.734000000
H     4.742000000    -0.886000000    -2.337000000
O     5.643000000    -3.967000000     0.686000000
H     4.899000000    -3.644000000     0.177000000
H     5.296000000    -4.718000000     1.167000000
O     1.921000000    -1.427000000     7.717000000
H     1.181000000    -1.676000000     8.272000000
H     1.642000000    -1.654000000     6.830000000
O     4.633000000    -1.252000000     6.358000000
H     3.778000000    -1.333000000     6.781000000
H     4.576000000    -0.437000000     5.858000000
O     3.725000000     1.295000000     5.331000000
H     2.786000000     1.408000000     5.483000000
H     3.781000000     0.915000000     4.454000000
O     1.685000000     1.855000000     8.361000000
H     1.332000000     1.513000000     7.540000000
H     1.365000000     2.756000000     8.403000000
O    -3.527000000    -3.132000000    -2.342000000
H    -2.716000000    -2.996000000    -1.851000000
H    -4.196000000    -3.255000000    -1.669000000
O     2.109000000    -3.305000000     1.624000000
H     2.648000000    -2.951000000     2.331000000
H     1.593000000    -3.997000000     2.039000000
O    -5.015000000    -4.152000000    -0.108000000
H    -4.739000000    -4.146000000     0.809000000
H    -5.946000000    -4.372000000    -0.077000000
O    -3.725000000     1.457000000    -6.232000000
H    -4.534000000     1.797000000    -6.615000000
H    -3.981000000     1.155000000    -5.361000000
O    -6.590000000     1.696000000    -4.939000000
H    -7.471000000     1.322000000    -4.967000000
H    -6.159000000     1.242000000    -4.216000000
O     4.680000000     1.871000000     7.823000000
H     4.399000000     1.877000000     6.908000000
H     3.902000000     1.603000000     8.311000000
O    -2.641000000    -3.545000000    -4.786000000
H    -3.400000000    -3.177000000    -5.239000000
H    -2.851000000    -3.457000000    -3.856000000
O    -3.402000000     4.703000000     2.036000000
H    -3.698000000     3.793000000     2.028000000
H    -3.806000000     5.093000000     1.261000000
O     0.767000000    -1.362000000    -7.159000000
H     0.184000000    -2.103000000    -7.321000000
H     0.183000000    -0.651000000    -6.895000000
O     3.947000000     0.964000000    -2.098000000
H     3.152000000     1.264000000    -1.656000000
H     3.630000000     0.500000000    -2.872000000
O    -0.238000000    -4.287000000    -6.221000000
H     0.445000000    -4.439000000    -5.567000000
H    -1.020000000    -4.083000000    -5.707000000
O    -1.438000000    -0.460000000     4.591000000
H    -1.883000000     0.093000000     5.234000000
H    -0.549000000    -0.109000000     4.549000000
O    -0.303000000     0.944000000    -5.999000000
H     0.110000000     1.248000000    -5.191000000
H    -0.947000000     1.620000000    -6.209000000
O    -0.647000000    -6.154000000    -2.529000000
H    -1.591000000    -5.999000000    -2.492000000
H    -0.304000000    -5.731000000    -1.742000000
O     3.636000000    -2.786000000    -0.640000000
H     3.053000000    -2.758000000     0.119000000
H     3.061000000    -2.633000000    -1.389000000
O     0.983000000     2.263000000    -4.015000000
H     0.866000000     2.366000000    -3.070000000
H     1.711000000     2.845000000    -4.231000000
O    -2.183000000     3.092000000    -2.308000000
H    -2.715000000     3.829000000    -2.608000000
H    -1.288000000     3.432000000    -2.298000000
O     1.063000000     4.320000000     4.087000000
H     1.319000000     3.549000000     4.594000000
H     0.466000000     4.798000000     4.663000000
O     1.038000000     4.495000000     1.126000000
H     0.675000000     4.492000000     2.012000000
H     1.014000000     5.414000000     0.860000000
O    -3.189000000    -1.292000000     2.333000000
H    -2.616000000    -1.248000000     3.099000000
H    -2.592000000    -1.395000000     1.592000000
O    -0.282000000    -2.774000000     3.652000000
H    -0.863000000    -2.108000000     4.021000000
H     0.583000000    -2.556000000     3.999000000
O     1.823000000    -1.630000000     4.834000000
H     1.705000000    -0.714000000     4.581000000
H     2.598000000    -1.914000000     4.349000000
O     0.920000000     1.944000000     5.835000000
H     0.027000000     2.152000000     6.107000000
H     0.835000000     1.668000000     4.923000000
O    -1.136000000    -2.871000000     0.799000000
H    -0.585000000    -2.673000000     1.557000000
H    -1.507000000    -3.732000000     0.990000000
O     0.303000000    -3.924000000    -1.181000000
H     0.855000000    -4.410000000    -0.568000000
H    -0.240000000    -3.366000000    -0.624000000
O     5.754000000     2.763000000    -0.930000000
H     5.421000000     2.043000000    -1.465000000
H     5.415000000     2.586000000    -0.052000000
O     6.831000000    -1.436000000     0.208000000
H     6.050000000    -1.407000000    -0.345000000
H     6.754000000    -2.260000000     0.689000000
O     3.961000000    -3.335000000     3.723000000
H     4.891000000    -3.126000000     3.809000000
H     3.850000000    -4.143000000     4.225000000
O    -1.770000000     1.820000000     6.517000000
H    -2.372000000     2.547000000     6.360000000
H    -2.148000000     1.353000000     7.262000000
O     3.794000000     2.900000000     1.499000000
H     3.361000000     2.098000000     1.793000000
H     3.076000000     3.499000000     1.294000000
O    -4.302000000     2.143000000     2.053000000
H    -3.748000000     1.393000000     2.268000000
H    -5.144000000     1.945000000     2.462000000
O    -2.581000000    -0.572000000    -7.617000000
H    -3.141000000    -1.271000000    -7.279000000
H    -2.721000000     0.159000000    -7.015000000
O    -4.517000000     1.591000000    -2.742000000
H    -3.680000000     1.968000000    -2.470000000
H    -4.510000000     0.706000000    -2.378000000
O    -1.531000000     3.842000000    -6.808000000
H    -2.025000000     3.027000000    -6.720000000
H    -1.786000000     4.186000000    -7.664000000
O     2.443000000    -2.972000000    -3.338000000
H     1.900000000    -2.776000000    -4.101000000
H     2.377000000    -3.922000000    -3.235000000
O    -0.496000000     4.839000000    -4.014000000
H     0.342000000     4.378000000    -3.990000000
H    -0.817000000     4.706000000    -4.907000000
O     3.089000000    -0.479000000    -4.332000000
H     2.669000000    -0.499000000    -5.192000000
H     3.079000000    -1.390000000    -4.039000000
O    -6.860000000    -0.784000000    -2.946000000
H    -6.563000000    -0.551000000    -2.066000000
H    -7.812000000    -0.845000000    -2.869000000
O     0.502000000     2.669000000    -1.291000000
H     0.703000000     3.369000000    -0.670000000
H     0.048000000     2.008000000    -0.769000000
O     6.525000000     1.809000000     4.030000000
H     6.030000000     1.327000000     3.369000000
H     6.860000000     1.133000000     4.619000000
