161
-3046.14774
C     1.139000000    -0.848000000     0.473000000
H     1.985000000    -1.464000000     0.768000000
C     0.415000000    -1.031000000    -0.725000000
H     0.853000000    -1.737000000    -1.426000000
C    -0.650000000    -0.217000000    -0.989000000
C    -1.296000000    -0.297000000    -2.370000000
H    -1.328000000     0.689000000    -2.840000000
H    -0.767000000    -0.987000000    -3.031000000
H    -2.325000000    -0.636000000    -2.235000000
C    -1.073000000     0.837000000    -0.159000000
H    -2.002000000     1.372000000    -0.340000000
C    -0.360000000     0.971000000     1.072000000
H    -0.670000000     1.787000000     1.720000000
C     0.744000000     0.182000000     1.353000000
C     1.568000000     0.396000000     2.581000000
O     1.306000000     1.364000000     3.284000000
O     2.463000000    -0.379000000     2.869000000
O    -4.234000000     1.456000000     3.667000000
H    -4.505000000     1.793000000     2.812000000
H    -4.422000000     0.518000000     3.624000000
O     4.977000000    -0.054000000     2.085000000
H     4.063000000    -0.049000000     2.368000000
H     4.932000000    -0.094000000     1.130000000
O     5.244000000    -1.213000000    -0.735000000
H     5.323000000    -1.998000000    -1.277000000
H     4.727000000    -0.607000000    -1.265000000
O     2.468000000     1.471000000     7.281000000
H     1.717000000     0.893000000     7.148000000
H     3.084000000     1.226000000     6.591000000
O     6.142000000    -2.446000000     2.779000000
H     6.956000000    -2.075000000     3.120000000
H     5.611000000    -1.685000000     2.546000000
O     5.288000000     2.983000000     4.595000000
H     5.369000000     3.474000000     5.413000000
H     4.812000000     2.189000000     4.838000000
O    -0.048000000    -0.717000000     8.091000000
H    -0.058000000    -0.626000000     7.138000000
H    -0.933000000    -0.476000000     8.364000000
O    -4.053000000    -2.125000000     0.833000000
H    -3.178000000    -2.290000000     1.186000000
H    -4.084000000    -1.178000000     0.702000000
O    -0.966000000    -4.259000000    -0.241000000
H    -1.176000000    -3.409000000     0.145000000
H    -0.831000000    -4.837000000     0.510000000
O    -4.750000000     0.237000000    -0.418000000
H    -5.632000000    -0.054000000    -0.647000000
H    -4.469000000     0.764000000    -1.166000000
O     4.821000000     5.166000000     2.420000000
H     4.909000000     4.736000000     3.271000000
H     4.023000000     4.796000000     2.045000000
O    -4.621000000    -1.054000000    -4.122000000
H    -5.509000000    -0.696000000    -4.114000000
H    -4.189000000    -0.608000000    -4.851000000
O    -5.036000000    -3.398000000    -1.331000000
H    -4.741000000    -2.720000000    -1.938000000
H    -4.729000000    -3.102000000    -0.474000000
O    -2.475000000     4.785000000     2.744000000
H    -3.349000000     4.397000000     2.798000000
H    -2.423000000     5.135000000     1.855000000
O    -1.158000000     0.048000000    -7.096000000
H    -0.452000000    -0.188000000    -7.698000000
H    -1.175000000    -0.663000000    -6.456000000
O     1.512000000    -1.458000000    -5.011000000
H     2.070000000    -0.680000000    -5.007000000
H     0.622000000    -1.116000000    -4.927000000
O    -3.365000000     1.974000000    -3.762000000
H    -3.664000000     1.196000000    -4.233000000
H    -4.166000000     2.467000000    -3.583000000
O     4.109000000     0.938000000    -2.175000000
H     3.973000000     1.790000000    -1.759000000
H     3.855000000     1.074000000    -3.088000000
O     2.808000000    -2.968000000     6.875000000
H     3.021000000    -2.570000000     6.031000000
H     1.855000000    -3.061000000     6.863000000
O    -1.472000000     2.621000000    -5.909000000
H    -2.172000000     2.606000000    -5.257000000
H    -1.429000000     1.723000000    -6.236000000
O     3.873000000    -2.903000000    -3.470000000
H     3.404000000    -2.306000000    -4.052000000
H     4.442000000    -3.407000000    -4.052000000
O    -1.805000000    -5.735000000    -2.511000000
H    -1.790000000    -5.438000000    -3.421000000
H    -1.802000000    -4.929000000    -1.995000000
O     5.232000000    -3.947000000    -1.292000000
H     4.479000000    -3.891000000    -1.879000000
H     5.953000000    -4.230000000    -1.854000000
O     0.851000000     2.557000000    -2.273000000
H     0.731000000     1.700000000    -1.865000000
H     1.657000000     2.897000000    -1.884000000
O    -1.541000000     3.916000000    -2.359000000
H    -2.144000000     3.219000000    -2.617000000
H    -0.688000000     3.485000000    -2.300000000
O     0.426000000     3.805000000     3.930000000
H     0.533000000     2.854000000     3.928000000
H    -0.357000000     3.959000000     3.402000000
O     1.949000000     6.072000000     3.902000000
H     1.823000000     5.123000000     3.909000000
H     1.841000000     6.321000000     2.984000000
O     3.821000000     0.821000000     4.955000000
H     2.922000000     0.903000000     4.638000000
H     4.100000000    -0.047000000     4.663000000
O    -3.231000000     6.099000000    -1.460000000
H    -2.658000000     5.421000000    -1.819000000
H    -3.646000000     6.493000000    -2.228000000
O     0.433000000     0.507000000     5.737000000
H     0.740000000     0.706000000     4.853000000
H    -0.329000000     1.073000000     5.859000000
O    -1.432000000    -2.425000000     1.877000000
H    -0.764000000    -1.757000000     2.033000000
H    -1.182000000    -3.152000000     2.448000000
O     1.388000000    -4.653000000    -1.995000000
H     2.207000000    -4.971000000    -1.615000000
H     0.889000000    -4.324000000    -1.247000000
O     3.808000000    -2.186000000     4.293000000
H     3.214000000    -1.683000000     3.736000000
H     4.501000000    -2.479000000     3.702000000
O     2.760000000     3.401000000     1.737000000
H     2.466000000     2.661000000     2.268000000
H     1.966000000     3.909000000     1.574000000
O     2.577000000    -4.859000000     2.433000000
H     2.792000000    -3.932000000     2.535000000
H     2.755000000    -5.243000000     3.292000000
O    -2.112000000     1.861000000     5.262000000
H    -2.980000000     1.854000000     4.859000000
H    -2.273000000     2.108000000     6.173000000
O    -1.554000000    -1.862000000    -5.231000000
H    -2.219000000    -1.776000000    -4.549000000
H    -1.527000000    -2.800000000    -5.423000000
O    -5.574000000     4.628000000    -0.258000000
H    -5.283000000     4.230000000     0.562000000
H    -4.915000000     5.296000000    -0.447000000
O     0.901000000     5.237000000     1.195000000
H     0.099000000     5.691000000     1.453000000
H     1.047000000     5.505000000     0.288000000
O    -3.847000000     0.288000000    -6.140000000
H    -4.510000000     0.795000000    -6.608000000
H    -3.117000000     0.223000000    -6.756000000
O     1.220000000    -4.442000000    -4.644000000
H     1.160000000    -3.491000000    -4.730000000
H     1.498000000    -4.584000000    -3.739000000
O    -4.271000000    -3.289000000    -5.544000000
H    -4.567000000    -2.780000000    -4.789000000
H    -4.870000000    -4.034000000    -5.581000000
O     2.294000000     1.841000000    -4.418000000
H     2.294000000     2.519000000    -5.094000000
H     1.846000000     2.245000000    -3.674000000
O     0.983000000     3.690000000    -6.309000000
H     0.228000000     3.225000000    -5.949000000
H     0.784000000     3.785000000    -7.240000000
O     3.275000000     3.365000000    -0.993000000
H     3.121000000     3.308000000    -0.050000000
H     2.978000000     4.243000000    -1.232000000
O    -0.211000000    -5.566000000     2.250000000
H    -0.051000000    -6.429000000     2.632000000
H     0.642000000    -5.131000000     2.277000000
O     6.503000000     2.293000000     2.408000000
H     5.889000000     2.446000000     3.126000000
H     6.188000000     1.492000000     1.989000000
O     1.437000000     4.180000000     6.642000000
H     2.032000000     3.431000000     6.667000000
H     1.049000000     4.148000000     5.767000000
