161
-3025.71601
C     1.205000000     0.029000000     0.885000000
H     2.120000000    -0.045000000     1.467000000
C     0.745000000    -1.059000000     0.152000000
H     1.427000000    -1.906000000     0.166000000
C    -0.430000000    -1.004000000    -0.542000000
C    -0.983000000    -2.175000000    -1.377000000
H    -0.535000000    -2.252000000    -2.370000000
H    -0.841000000    -3.122000000    -0.852000000
H    -2.052000000    -1.977000000    -1.480000000
C    -1.095000000     0.229000000    -0.626000000
H    -2.041000000     0.291000000    -1.157000000
C    -0.627000000     1.295000000    -0.029000000
H    -1.134000000     2.256000000     0.006000000
C     0.511000000     1.214000000     0.785000000
C     1.105000000     2.437000000     1.428000000
O     0.599000000     3.537000000     1.360000000
O     2.028000000     2.251000000     2.184000000
O     3.554000000     2.767000000     4.388000000
H     2.985000000     2.924000000     3.635000000
H     3.434000000     1.839000000     4.590000000
O     3.670000000     3.230000000     0.346000000
H     3.407000000     2.919000000     1.212000000
H     2.959000000     3.811000000     0.074000000
O     2.217000000    -4.571000000    -0.510000000
H     2.347000000    -4.128000000     0.329000000
H     3.102000000    -4.740000000    -0.832000000
O     1.551000000    -2.448000000     4.174000000
H     0.682000000    -2.131000000     3.928000000
H     2.047000000    -2.450000000     3.355000000
O    -2.499000000     5.077000000    -3.360000000
H    -2.150000000     4.321000000    -3.831000000
H    -3.342000000     4.777000000    -3.018000000
O     5.804000000    -2.731000000     1.326000000
H     6.380000000    -2.527000000     2.063000000
H     6.158000000    -2.222000000     0.597000000
O    -5.469000000    -1.203000000     2.039000000
H    -4.720000000    -0.654000000     2.272000000
H    -6.057000000    -0.617000000     1.564000000
O    -4.291000000    -6.370000000     1.148000000
H    -3.495000000    -6.507000000     0.634000000
H    -4.601000000    -5.504000000     0.883000000
O    -1.474000000     0.343000000    -5.295000000
H    -1.615000000     1.272000000    -5.480000000
H    -1.294000000    -0.047000000    -6.150000000
O    -3.285000000     0.280000000     2.588000000
H    -3.072000000    -0.467000000     2.028000000
H    -2.506000000     0.835000000     2.554000000
O     3.199000000    -3.132000000     2.158000000
H     3.223000000    -4.086000000     2.229000000
H     4.039000000    -2.900000000     1.764000000
O    -3.175000000    -2.682000000     1.775000000
H    -3.255000000    -3.268000000     1.022000000
H    -4.063000000    -2.358000000     1.922000000
O    -5.974000000     0.171000000    -2.419000000
H    -6.278000000     0.348000000    -3.309000000
H    -5.097000000    -0.194000000    -2.533000000
O    -3.659000000    -0.800000000    -3.396000000
H    -2.962000000    -0.376000000    -3.896000000
H    -3.768000000    -1.654000000    -3.813000000
O     4.404000000     3.773000000     6.884000000
H     5.294000000     4.064000000     6.685000000
H     4.039000000     3.522000000     6.036000000
O     1.345000000     0.867000000     4.596000000
H     1.205000000     1.198000000     3.709000000
H     0.797000000     1.424000000     5.149000000
O     0.377000000     5.249000000    -2.478000000
H    -0.091000000     5.115000000    -1.654000000
H    -0.291000000     5.575000000    -3.082000000
O    -0.781000000    -1.982000000     3.456000000
H    -1.532000000    -2.471000000     3.794000000
H    -0.772000000    -2.174000000     2.519000000
O     1.082000000     7.293000000     1.479000000
H     0.644000000     7.063000000     0.660000000
H     0.829000000     8.202000000     1.639000000
O     5.814000000     1.913000000    -0.514000000
H     5.816000000     2.222000000    -1.419000000
H     5.199000000     2.492000000    -0.064000000
O    -0.923000000    -3.421000000    -5.791000000
H    -1.130000000    -2.736000000    -6.427000000
H    -0.266000000    -3.026000000    -5.218000000
O     1.361000000    -0.386000000    -3.334000000
H     1.893000000     0.031000000    -2.657000000
H     0.562000000     0.140000000    -3.369000000
O    -4.000000000    -3.987000000    -0.649000000
H    -3.986000000    -3.273000000    -1.287000000
H    -3.687000000    -4.749000000    -1.135000000
O     3.231000000     0.887000000    -2.072000000
H     3.460000000     1.777000000    -2.341000000
H     3.130000000     0.943000000    -1.122000000
O     5.280000000     4.415000000     2.714000000
H     5.833000000     4.538000000     3.485000000
H     4.532000000     3.911000000     3.033000000
O     2.923000000     6.135000000     5.460000000
H     3.704000000     5.581000000     5.455000000
H     2.358000000     5.758000000     4.786000000
O    -6.176000000    -2.616000000    -2.161000000
H    -7.049000000    -2.753000000    -2.530000000
H    -6.053000000    -1.667000000    -2.182000000
O    -2.507000000     7.837000000     0.362000000
H    -1.803000000     8.438000000     0.607000000
H    -2.064000000     7.008000000     0.186000000
O    -0.798000000     5.392000000     0.016000000
H    -0.072000000     5.018000000     0.515000000
H    -1.537000000     4.811000000     0.197000000
O    -1.922000000     7.187000000     4.051000000
H    -2.010000000     6.682000000     4.859000000
H    -1.434000000     6.613000000     3.460000000
O     3.551000000    -0.227000000     5.281000000
H     2.750000000     0.178000000     4.950000000
H     3.507000000    -1.132000000     4.972000000
O     4.359000000    -1.400000000    -4.099000000
H     4.582000000    -2.166000000    -3.569000000
H     3.691000000    -0.942000000    -3.588000000
O    -1.722000000    -6.027000000    -5.632000000
H    -2.413000000    -6.023000000    -4.969000000
H    -1.444000000    -5.113000000    -5.693000000
O     4.808000000     5.878000000    -0.009000000
H     4.832000000     4.952000000     0.233000000
H     4.017000000     5.966000000    -0.541000000
O     2.510000000     6.424000000    -1.393000000
H     3.134000000     6.835000000    -1.992000000
H     1.737000000     6.254000000    -1.932000000
O     4.918000000    -3.465000000    -2.218000000
H     4.722000000    -4.397000000    -2.314000000
H     5.859000000    -3.434000000    -2.049000000
O    -1.734000000    -6.700000000     0.050000000
H    -1.347000000    -7.102000000    -0.728000000
H    -0.988000000    -6.509000000     0.618000000
O    -6.730000000     0.563000000     0.140000000
H    -7.654000000     0.797000000     0.223000000
H    -6.594000000     0.452000000    -0.801000000
O     1.170000000     5.025000000     3.330000000
H     1.035000000     4.273000000     2.754000000
H     1.036000000     5.786000000     2.765000000
O    -0.593000000    -6.809000000    -2.642000000
H    -0.031000000    -7.564000000    -2.814000000
H    -0.107000000    -6.063000000    -2.993000000
O    -4.347000000    -3.329000000    -4.174000000
H    -5.044000000    -3.093000000    -3.561000000
H    -3.909000000    -4.074000000    -3.763000000
O    -3.165000000     4.026000000     0.453000000
H    -3.553000000     3.370000000     1.032000000
H    -3.721000000     4.016000000    -0.326000000
O     1.231000000    -5.111000000    -3.377000000
H     1.129000000    -4.220000000    -3.712000000
H     1.279000000    -5.005000000    -2.427000000
O     1.230000000    -2.731000000    -4.508000000
H     1.933000000    -2.800000000    -5.154000000
H     1.331000000    -1.854000000    -4.137000000
O    -0.223000000     2.835000000     6.480000000
H    -0.630000000     3.196000000     5.693000000
H    -0.081000000     3.594000000     7.045000000
O    -3.096000000    -5.503000000    -2.736000000
H    -3.667000000    -6.271000000    -2.754000000
H    -2.224000000    -5.858000000    -2.560000000
O     1.781000000     3.225000000    -3.705000000
H     1.788000000     3.582000000    -4.594000000
H     1.299000000     3.872000000    -3.191000000
O    -1.382000000     3.080000000     3.754000000
H    -2.254000000     3.460000000     3.656000000
H    -0.903000000     3.375000000     2.980000000
