161
-3073.13817
C    -0.271000000    -1.455000000    -0.232000000
H    -0.333000000    -2.514000000    -0.467000000
C     0.983000000    -0.872000000    -0.209000000
H     1.840000000    -1.525000000    -0.356000000
C     1.123000000     0.509000000     0.124000000
C     2.412000000     1.210000000     0.007000000
H     3.075000000     0.878000000     0.808000000
H     2.970000000     0.842000000    -0.857000000
H     2.346000000     2.282000000     0.205000000
C    -0.019000000     1.266000000     0.408000000
H     0.043000000     2.325000000     0.641000000
C    -1.300000000     0.733000000     0.226000000
H    -2.087000000     1.481000000     0.179000000
C    -1.399000000    -0.666000000    -0.014000000
C    -2.765000000    -1.305000000    -0.111000000
O    -3.768000000    -0.808000000     0.351000000
O    -2.842000000    -2.376000000    -0.707000000
O    -3.837000000    -0.600000000    -3.288000000
H    -3.441000000    -0.121000000    -4.016000000
H    -3.815000000    -1.516000000    -3.565000000
O    -4.217000000     3.143000000     1.722000000
H    -4.546000000     2.269000000     1.934000000
H    -4.383000000     3.240000000     0.784000000
O     0.078000000     6.534000000     0.021000000
H     0.334000000     7.456000000     0.039000000
H    -0.601000000     6.460000000     0.692000000
O     5.787000000     5.097000000     0.419000000
H     4.971000000     5.597000000     0.423000000
H     5.663000000     4.432000000     1.096000000
O     3.930000000     0.068000000    -5.914000000
H     3.766000000     0.944000000    -5.566000000
H     3.649000000    -0.524000000    -5.217000000
O    -0.521000000     4.345000000    -1.950000000
H    -0.232000000     5.242000000    -2.120000000
H    -0.665000000     4.315000000    -1.004000000
O     0.661000000    -6.216000000     0.279000000
H     0.458000000    -5.935000000    -0.613000000
H     0.970000000    -5.423000000     0.716000000
O    -1.744000000    -3.877000000     3.089000000
H    -1.701000000    -4.185000000     2.184000000
H    -2.558000000    -4.248000000     3.430000000
O     0.087000000    -5.026000000    -2.013000000
H     0.260000000    -5.698000000    -2.673000000
H    -0.384000000    -4.341000000    -2.487000000
O    -4.865000000    -3.453000000    -1.811000000
H    -4.848000000    -4.281000000    -1.331000000
H    -4.101000000    -2.973000000    -1.490000000
O    -2.868000000     6.201000000     0.773000000
H    -3.496000000     5.552000000     0.458000000
H    -2.825000000     6.852000000     0.073000000
O    -1.703000000    -3.435000000    -3.002000000
H    -1.616000000    -2.754000000    -3.669000000
H    -2.010000000    -2.970000000    -2.223000000
O     2.930000000     5.301000000     0.379000000
H     2.164000000     5.789000000     0.078000000
H     2.630000000     4.394000000     0.433000000
O     3.575000000    -5.614000000    -3.424000000
H     3.798000000    -6.452000000    -3.018000000
H     3.508000000    -5.003000000    -2.690000000
O     6.368000000     0.264000000     1.743000000
H     5.841000000    -0.384000000     1.274000000
H     7.084000000     0.470000000     1.142000000
O     1.022000000     0.579000000     4.128000000
H     0.395000000     1.274000000     3.928000000
H     0.576000000    -0.227000000     3.868000000
O    -4.399000000     4.163000000    -1.027000000
H    -4.217000000     3.342000000    -1.483000000
H    -5.354000000     4.230000000    -1.027000000
O     1.408000000    -4.374000000     2.032000000
H     2.229000000    -3.884000000     2.014000000
H     0.747000000    -3.725000000     2.274000000
O     5.183000000    -1.790000000     0.229000000
H     4.723000000    -1.468000000    -0.547000000
H     5.754000000    -2.484000000    -0.103000000
O     5.813000000     0.658000000    -3.392000000
H     5.380000000     1.389000000    -3.832000000
H     6.182000000     0.134000000    -4.103000000
O     7.978000000     1.767000000    -2.116000000
H     8.321000000     2.182000000    -2.907000000
H     7.085000000     1.513000000    -2.347000000
O    -3.110000000    -5.466000000    -4.670000000
H    -2.505000000    -4.936000000    -4.152000000
H    -3.568000000    -4.834000000    -5.224000000
O     3.695000000    -3.018000000     2.005000000
H     3.854000000    -2.746000000     2.909000000
H     4.379000000    -2.580000000     1.499000000
O    -1.013000000     2.242000000     3.525000000
H    -1.615000000     2.560000000     2.853000000
H    -0.965000000     2.955000000     4.161000000
O    -6.029000000    -2.648000000     1.380000000
H    -5.131000000    -2.320000000     1.431000000
H    -6.152000000    -3.136000000     2.194000000
O    -2.707000000     4.610000000    -3.342000000
H    -1.993000000     4.353000000    -2.758000000
H    -3.403000000     4.903000000    -2.755000000
O     3.364000000    -4.037000000    -1.101000000
H     2.605000000    -3.871000000    -0.542000000
H     3.690000000    -3.166000000    -1.328000000
O    -5.115000000     0.234000000     2.569000000
H    -4.282000000    -0.037000000     2.954000000
H    -5.211000000    -0.317000000     1.792000000
O    -4.471000000     1.192000000    -1.334000000
H    -4.142000000     0.703000000    -0.580000000
H    -4.317000000     0.612000000    -2.080000000
O     3.938000000    -1.479000000    -2.322000000
H     3.272000000    -1.458000000    -3.009000000
H     4.487000000    -0.715000000    -2.497000000
O     6.924000000    -1.399000000     3.883000000
H     6.914000000    -0.821000000     3.120000000
H     7.022000000    -2.278000000     3.517000000
O     3.604000000     2.581000000    -4.613000000
H     4.017000000     3.357000000    -4.234000000
H     2.708000000     2.597000000    -4.274000000
O    -6.936000000    -0.028000000     4.609000000
H    -7.287000000    -0.771000000     4.117000000
H    -6.226000000     0.308000000     4.063000000
O     0.238000000    -0.335000000    -3.049000000
H     0.309000000    -0.494000000    -2.108000000
H     0.626000000     0.531000000    -3.176000000
O     0.998000000     2.218000000    -3.692000000
H     0.724000000     2.966000000    -3.161000000
H     0.489000000     2.297000000    -4.498000000
O     2.268000000    -1.764000000    -4.415000000
H     1.428000000    -1.341000000    -4.237000000
H     2.034000000    -2.632000000    -4.745000000
O     3.061000000     2.100000000     5.199000000
H     3.151000000     2.087000000     6.152000000
H     2.497000000     1.353000000     5.002000000
O    -1.312000000    -1.681000000    -4.875000000
H    -0.795000000    -2.066000000    -5.583000000
H    -0.733000000    -1.026000000    -4.485000000
O     5.475000000     2.871000000     2.663000000
H     5.608000000     1.932000000     2.540000000
H     5.394000000     2.979000000     3.611000000
O     2.473000000     3.452000000     2.493000000
H     3.260000000     3.986000000     2.384000000
H     2.779000000     2.667000000     2.949000000
O    -0.086000000    -1.671000000     3.002000000
H    -0.900000000    -2.174000000     2.966000000
H    -0.159000000    -1.045000000     2.282000000
O    -7.598000000    -0.423000000     0.271000000
H    -7.570000000    -1.242000000     0.765000000
H    -7.075000000    -0.597000000    -0.512000000
O     0.468000000     3.517000000     5.377000000
H     1.177000000     2.993000000     5.004000000
H     0.676000000     4.416000000     5.125000000
O    -2.783000000    -0.201000000     3.927000000
H    -1.996000000     0.339000000     3.855000000
H    -2.742000000    -0.567000000     4.811000000
O    -7.021000000    -4.775000000    -0.067000000
H    -6.640000000    -4.110000000     0.507000000
H    -6.465000000    -5.544000000     0.055000000
O    -6.448000000    -1.192000000    -2.051000000
H    -5.591000000    -0.773000000    -2.127000000
H    -6.251000000    -2.123000000    -1.947000000
O    -3.006000000     4.843000000     3.395000000
H    -2.964000000     5.597000000     2.807000000
H    -3.550000000     4.207000000     2.930000000
O    -1.980000000    -4.603000000     0.414000000
H    -1.560000000    -4.948000000    -0.374000000
H    -2.597000000    -3.948000000     0.089000000
