161
-3042.54804
C     0.233000000     1.376000000     0.307000000
H     0.626000000     2.359000000     0.558000000
C     1.177000000     0.376000000     0.386000000
H     2.231000000     0.538000000     0.599000000
C     0.778000000    -0.900000000     0.038000000
C     1.855000000    -1.982000000     0.010000000
H     2.784000000    -1.573000000    -0.392000000
H     2.235000000    -2.504000000     0.891000000
H     1.578000000    -2.713000000    -0.753000000
C    -0.564000000    -1.229000000    -0.252000000
H    -0.863000000    -2.272000000    -0.319000000
C    -1.526000000    -0.191000000    -0.321000000
H    -2.568000000    -0.442000000    -0.504000000
C    -1.119000000     1.146000000    -0.073000000
C    -2.008000000     2.387000000    -0.105000000
O    -3.188000000     2.124000000    -0.253000000
O    -1.660000000     3.506000000     0.178000000
O     1.175000000    -4.122000000    -2.616000000
H     1.965000000    -3.706000000    -2.962000000
H     0.457000000    -3.705000000    -3.092000000
O     2.521000000    -6.620000000    -2.295000000
H     2.078000000    -7.295000000    -2.810000000
H     1.898000000    -5.893000000    -2.267000000
O     2.128000000     5.732000000    -2.007000000
H     2.784000000     5.127000000    -1.661000000
H     1.435000000     5.737000000    -1.347000000
O    -4.612000000     4.117000000     4.323000000
H    -5.277000000     3.613000000     4.793000000
H    -4.389000000     3.573000000     3.568000000
O     0.468000000     0.567000000    -3.937000000
H    -0.392000000     0.986000000    -3.919000000
H     0.874000000     0.816000000    -3.107000000
O    -3.220000000    -5.113000000    -2.113000000
H    -3.314000000    -6.010000000    -2.433000000
H    -2.274000000    -4.979000000    -2.052000000
O    -4.850000000     1.021000000    -2.001000000
H    -5.344000000     1.762000000    -2.354000000
H    -4.293000000     1.405000000    -1.325000000
O    -3.898000000     0.668000000     2.952000000
H    -4.023000000    -0.073000000     2.359000000
H    -3.286000000     0.345000000     3.614000000
O    -7.057000000     2.778000000     0.219000000
H    -6.223000000     3.127000000     0.533000000
H    -7.096000000     3.041000000    -0.701000000
O     0.516000000     0.266000000     3.746000000
H    -0.300000000     0.087000000     4.213000000
H     0.236000000     0.625000000     2.904000000
O    -3.433000000     5.472000000    -0.259000000
H    -2.763000000     4.790000000    -0.213000000
H    -3.391000000     5.907000000     0.592000000
O     7.969000000    -1.984000000    -1.309000000
H     7.064000000    -2.213000000    -1.097000000
H     7.970000000    -1.027000000    -1.350000000
O     3.060000000    -2.524000000    -3.984000000
H     3.827000000    -2.994000000    -3.658000000
H     3.331000000    -1.606000000    -4.000000000
O    -1.606000000    -4.995000000    -4.557000000
H    -1.396000000    -4.168000000    -4.124000000
H    -0.886000000    -5.134000000    -5.172000000
O     2.140000000     2.403000000    -2.290000000
H     2.651000000     2.036000000    -1.568000000
H     2.765000000     2.938000000    -2.779000000
O     0.182000000     6.641000000     2.988000000
H     0.674000000     6.973000000     3.739000000
H     0.747000000     6.817000000     2.236000000
O    -2.846000000    -3.962000000     3.058000000
H    -2.594000000    -3.384000000     3.778000000
H    -3.173000000    -3.370000000     2.380000000
O     0.594000000    -6.144000000     1.833000000
H     1.312000000    -6.776000000     1.805000000
H    -0.063000000    -6.552000000     2.397000000
O    -4.498000000    -1.423000000    -3.706000000
H    -4.692000000    -0.577000000    -3.301000000
H    -4.142000000    -1.200000000    -4.566000000
O    -2.853000000    -5.732000000     0.918000000
H    -1.964000000    -5.850000000     0.585000000
H    -2.817000000    -4.912000000     1.411000000
O    -2.648000000     6.159000000     2.561000000
H    -2.930000000     5.288000000     2.841000000
H    -1.815000000     6.298000000     3.013000000
O    -0.777000000    -2.458000000    -3.783000000
H    -0.471000000    -1.727000000    -3.245000000
H    -0.369000000    -2.314000000    -4.637000000
O     1.919000000    -4.305000000     3.577000000
H     1.553000000    -4.831000000     2.866000000
H     1.159000000    -3.895000000     3.989000000
O     2.151000000     3.558000000     3.121000000
H     2.642000000     2.847000000     3.533000000
H     2.781000000     4.275000000     3.050000000
O     3.974000000    -1.580000000     4.465000000
H     4.384000000    -2.232000000     3.896000000
H     3.161000000    -1.349000000     4.016000000
O     3.011000000     1.473000000     4.502000000
H     2.185000000     1.062000000     4.245000000
H     3.032000000     1.392000000     5.455000000
O    -7.169000000    -0.124000000    -0.895000000
H    -6.511000000     0.566000000    -0.977000000
H    -7.181000000    -0.334000000     0.038000000
O    -6.140000000     6.039000000    -0.491000000
H    -6.390000000     5.943000000     0.428000000
H    -5.199000000     5.869000000    -0.502000000
O     4.479000000    -3.563000000     2.053000000
H     3.657000000    -3.712000000     2.520000000
H     4.732000000    -4.427000000     1.730000000
O    -2.226000000     7.727000000    -1.801000000
H    -2.854000000     7.495000000    -2.485000000
H    -2.639000000     7.438000000    -0.988000000
O     5.501000000     1.219000000     3.472000000
H     5.473000000     1.508000000     2.560000000
H     4.596000000     0.981000000     3.675000000
O     2.879000000     3.697000000     0.433000000
H     2.987000000     4.641000000     0.316000000
H     2.654000000     3.595000000     1.358000000
O     5.150000000     1.991000000     0.833000000
H     4.434000000     2.625000000     0.801000000
H     4.976000000     1.395000000     0.105000000
O    -4.356000000     3.070000000     1.875000000
H    -3.807000000     2.931000000     1.103000000
H    -4.355000000     2.226000000     2.326000000
O    -0.565000000     6.388000000    -3.508000000
H     0.096000000     5.800000000    -3.143000000
H    -0.949000000     6.819000000    -2.745000000
O    -3.583000000     3.881000000    -2.390000000
H    -3.568000000     4.773000000    -2.043000000
H    -3.183000000     3.350000000    -1.701000000
O     5.140000000    -6.009000000     1.218000000
H     5.845000000    -6.543000000     1.584000000
H     5.031000000    -6.334000000     0.325000000
O     5.452000000    -2.281000000    -0.367000000
H     5.536000000    -3.004000000    -0.989000000
H     5.298000000    -2.707000000     0.476000000
O     0.177000000     5.231000000     0.229000000
H     0.082000000     5.675000000     1.072000000
H    -0.447000000     4.506000000     0.268000000
O    -0.223000000     3.516000000    -2.252000000
H    -0.513000000     4.009000000    -1.485000000
H     0.603000000     3.115000000    -1.981000000
O    -5.048000000     3.340000000    -4.741000000
H    -5.711000000     4.031000000    -4.735000000
H    -4.379000000     3.644000000    -4.128000000
O    -0.337000000    -5.154000000    -0.669000000
H     0.005000000    -5.018000000     0.214000000
H     0.326000000    -4.771000000    -1.244000000
O     4.235000000     0.067000000    -4.015000000
H     5.146000000    -0.024000000    -4.297000000
H     3.931000000     0.868000000    -4.442000000
O    -3.945000000    -1.985000000     1.371000000
H    -4.880000000    -2.055000000     1.563000000
H    -3.862000000    -2.300000000     0.471000000
O    -1.062000000     3.548000000     3.186000000
H    -1.406000000     3.577000000     2.293000000
H    -0.112000000     3.576000000     3.078000000
O    -2.029000000     1.870000000    -3.716000000
H    -1.688000000     2.750000000    -3.553000000
H    -2.806000000     1.808000000    -3.162000000
O     4.684000000     0.347000000    -1.207000000
H     4.422000000     0.413000000    -2.125000000
H     5.075000000    -0.524000000    -1.132000000
O    -4.248000000    -2.815000000    -1.315000000
H    -4.159000000    -2.288000000    -2.109000000
H    -3.709000000    -3.589000000    -1.479000000
