161
-3022.32239
C     0.022000000     1.333000000    -0.799000000
H     0.183000000     2.270000000    -1.326000000
C     1.083000000     0.630000000    -0.249000000
H     2.071000000     1.080000000    -0.314000000
C     0.974000000    -0.611000000     0.395000000
C     2.141000000    -1.364000000     0.918000000
H     3.033000000    -1.114000000     0.339000000
H     2.338000000    -1.174000000     1.975000000
H     1.983000000    -2.438000000     0.802000000
C    -0.275000000    -1.095000000     0.651000000
H    -0.359000000    -2.063000000     1.137000000
C    -1.384000000    -0.471000000     0.196000000
H    -2.324000000    -0.991000000     0.359000000
C    -1.255000000     0.743000000    -0.589000000
C    -2.446000000     1.528000000    -1.036000000
O    -3.562000000     1.205000000    -0.750000000
O    -2.231000000     2.527000000    -1.701000000
O    -4.113000000     0.788000000    -6.413000000
H    -3.847000000     0.981000000    -5.514000000
H    -3.991000000     1.614000000    -6.881000000
O     1.074000000    -6.033000000     2.234000000
H     0.723000000    -6.340000000     1.397000000
H     0.398000000    -5.450000000     2.578000000
O     1.063000000     0.187000000    -3.542000000
H     0.617000000     0.292000000    -2.701000000
H     1.117000000    -0.760000000    -3.668000000
O    -1.084000000    -0.547000000     3.676000000
H    -1.790000000    -0.164000000     4.197000000
H    -1.534000000    -1.056000000     3.002000000
O    -6.960000000     4.036000000     0.831000000
H    -6.275000000     3.378000000     0.947000000
H    -7.013000000     4.163000000    -0.116000000
O    -3.089000000     3.423000000     3.832000000
H    -3.415000000     2.842000000     3.145000000
H    -2.319000000     2.973000000     4.181000000
O    -3.361000000     4.859000000    -4.535000000
H    -3.787000000     5.708000000    -4.655000000
H    -2.707000000     5.013000000    -3.854000000
O     2.146000000    -3.867000000    -1.799000000
H     2.748000000    -3.396000000    -1.223000000
H     2.450000000    -4.774000000    -1.773000000
O     5.339000000     0.684000000    -2.162000000
H     5.865000000     0.922000000    -1.398000000
H     4.770000000    -0.020000000    -1.850000000
O     1.566000000     3.049000000    -3.728000000
H     2.470000000     3.144000000    -3.429000000
H     1.433000000     2.103000000    -3.791000000
O    -2.379000000    -6.936000000     2.102000000
H    -2.196000000    -6.140000000     1.604000000
H    -2.465000000    -7.620000000     1.438000000
O     4.018000000     2.939000000    -2.855000000
H     4.390000000     2.107000000    -2.562000000
H     4.393000000     3.075000000    -3.725000000
O     4.350000000    -3.822000000     0.136000000
H     4.928000000    -4.582000000     0.208000000
H     3.719000000    -3.934000000     0.847000000
O     1.823000000     5.778000000    -4.415000000
H     2.674000000     5.748000000    -3.979000000
H     1.366000000     4.997000000    -4.102000000
O     1.020000000    -2.257000000    -3.755000000
H     1.376000000    -2.731000000    -4.507000000
H     1.162000000    -2.844000000    -3.013000000
O     2.298000000     3.816000000    -0.737000000
H     2.837000000     3.769000000    -1.526000000
H     1.888000000     4.680000000    -0.778000000
O    -5.346000000    -2.735000000    -1.749000000
H    -6.286000000    -2.792000000    -1.578000000
H    -5.145000000    -1.802000000    -1.678000000
O    -0.933000000    -3.857000000     3.266000000
H    -0.523000000    -4.034000000     4.113000000
H    -1.699000000    -3.324000000     3.478000000
O    -2.568000000    -2.357000000    -3.898000000
H    -2.099000000    -1.931000000    -4.615000000
H    -2.392000000    -3.290000000    -4.017000000
O     4.227000000    -1.421000000     5.913000000
H     3.756000000    -0.637000000     5.627000000
H     5.144000000    -1.236000000     5.711000000
O    -5.393000000    -4.572000000     0.163000000
H    -5.214000000    -5.461000000    -0.143000000
H    -5.352000000    -4.034000000    -0.627000000
O     0.037000000     2.760000000     4.908000000
H     0.715000000     3.420000000     5.051000000
H     0.378000000     2.217000000     4.198000000
O     5.670000000     3.681000000    -0.237000000
H     5.453000000     4.072000000    -1.083000000
H     5.406000000     4.338000000     0.406000000
O     2.400000000    -3.066000000     4.702000000
H     2.943000000    -2.514000000     5.264000000
H     1.511000000    -2.948000000     5.037000000
O    -2.078000000     3.654000000    -6.516000000
H    -2.717000000     4.231000000    -6.098000000
H    -2.091000000     2.858000000    -5.983000000
O     3.190000000     3.199000000     1.789000000
H     2.889000000     3.336000000     0.890000000
H     3.651000000     4.007000000     2.012000000
O     0.003000000    -1.632000000     5.819000000
H    -0.888000000    -1.700000000     6.163000000
H    -0.097000000    -1.177000000     4.983000000
O    -3.305000000    -2.619000000     3.375000000
H    -3.578000000    -1.705000000     3.290000000
H    -4.065000000    -3.123000000     3.084000000
O    -5.566000000     0.065000000    -2.319000000
H    -4.948000000     0.345000000    -1.644000000
H    -6.399000000     0.459000000    -2.061000000
O    -0.970000000     4.401000000    -2.815000000
H    -0.414000000     3.796000000    -3.306000000
H    -1.513000000     3.836000000    -2.266000000
O    -4.237000000     4.066000000    -0.818000000
H    -4.570000000     3.475000000    -0.143000000
H    -3.465000000     3.620000000    -1.166000000
O     5.875000000    -2.791000000     3.082000000
H     6.348000000    -3.462000000     2.590000000
H     4.954000000    -3.035000000     2.995000000
O    -2.232000000     6.019000000    -0.198000000
H    -2.473000000     6.074000000     0.727000000
H    -2.897000000     5.451000000    -0.586000000
O    -0.063000000     4.078000000     1.881000000
H     0.099000000     3.170000000     2.136000000
H     0.517000000     4.223000000     1.133000000
O     4.678000000     2.440000000     4.163000000
H     4.936000000     3.333000000     4.395000000
H     3.950000000     2.553000000     3.552000000
O     3.251000000    -4.593000000     2.812000000
H     2.664000000    -5.333000000     2.657000000
H     2.737000000    -3.988000000     3.348000000
O     6.001000000     1.646000000     1.538000000
H     5.816000000     2.202000000     0.782000000
H     5.811000000     2.200000000     2.295000000
O    -5.094000000     6.609000000    -1.709000000
H    -4.738000000     5.841000000    -1.262000000
H    -5.625000000     7.048000000    -1.045000000
O    -5.185000000     2.070000000     1.070000000
H    -5.333000000     1.395000000     1.732000000
H    -4.670000000     1.631000000     0.392000000
O     0.594000000     1.452000000     2.683000000
H     0.142000000     0.659000000     2.974000000
H     1.154000000     1.158000000     1.965000000
O    -1.173000000    -5.338000000    -2.048000000
H    -1.740000000    -4.664000000    -1.672000000
H    -0.297000000    -5.117000000    -1.732000000
O    -4.054000000     0.045000000     3.771000000
H    -4.976000000     0.253000000     3.923000000
H    -3.592000000     0.463000000     4.498000000
O    -2.459000000     2.159000000    -4.311000000
H    -2.598000000     2.058000000    -3.369000000
H    -2.795000000     3.033000000    -4.510000000
O     7.337000000    -0.709000000     2.139000000
H     6.738000000    -0.039000000     1.811000000
H     6.785000000    -1.284000000     2.670000000
O    -2.547000000    -3.138000000    -1.185000000
H    -2.581000000    -2.732000000    -2.051000000
H    -3.450000000    -3.102000000    -0.868000000
O     6.598000000    -3.691000000    -1.598000000
H     6.450000000    -4.439000000    -2.178000000
H     5.769000000    -3.582000000    -1.132000000
O     0.358000000     6.164000000    -0.893000000
H     0.273000000     6.040000000    -1.838000000
H    -0.539000000     6.107000000    -0.563000000
O    -1.725000000    -4.688000000     0.959000000
H    -1.458000000    -4.100000000     1.665000000
H    -1.980000000    -4.104000000     0.245000000
