161
-3059.42011
C     1.014000000     0.987000000     0.536000000
H     1.889000000     1.615000000     0.678000000
C     1.262000000    -0.354000000     0.209000000
H     2.279000000    -0.737000000     0.224000000
C     0.299000000    -1.188000000    -0.230000000
C     0.570000000    -2.569000000    -0.774000000
H    -0.185000000    -2.817000000    -1.524000000
H     1.558000000    -2.693000000    -1.221000000
H     0.411000000    -3.349000000    -0.026000000
C    -0.975000000    -0.665000000    -0.284000000
H    -1.721000000    -1.275000000    -0.786000000
C    -1.325000000     0.606000000     0.118000000
H    -2.334000000     0.955000000    -0.085000000
C    -0.328000000     1.503000000     0.511000000
C    -0.695000000     2.928000000     0.834000000
O    -1.856000000     3.290000000     0.830000000
O     0.144000000     3.762000000     0.989000000
O    -1.518000000     3.930000000    -2.817000000
H    -0.759000000     3.804000000    -3.387000000
H    -1.404000000     4.810000000    -2.458000000
O     2.577000000    -5.444000000     2.626000000
H     3.207000000    -6.152000000     2.760000000
H     3.031000000    -4.823000000     2.056000000
O     5.065000000     3.931000000     3.855000000
H     5.862000000     4.078000000     3.346000000
H     4.363000000     3.923000000     3.203000000
O     0.885000000    -3.714000000    -5.703000000
H     1.132000000    -3.568000000    -6.616000000
H     0.798000000    -2.835000000    -5.335000000
O    -4.116000000    -1.119000000     1.302000000
H    -3.654000000    -0.289000000     1.186000000
H    -5.012000000    -0.936000000     1.020000000
O    -3.004000000     5.674000000     1.842000000
H    -3.900000000     5.555000000     2.158000000
H    -2.691000000     4.786000000     1.670000000
O    -2.505000000     1.053000000     4.386000000
H    -2.697000000     1.317000000     3.486000000
H    -1.745000000     0.476000000     4.309000000
O    -4.888000000     4.104000000     3.035000000
H    -5.559000000     4.570000000     2.537000000
H    -4.683000000     4.688000000     3.766000000
O     0.177000000    -6.983000000    -2.841000000
H    -0.165000000    -6.504000000    -2.086000000
H     1.114000000    -7.072000000    -2.663000000
O     6.310000000     2.551000000    -0.202000000
H     5.948000000     1.774000000     0.223000000
H     5.545000000     3.082000000    -0.424000000
O    -1.499000000    -4.958000000    -5.527000000
H    -2.173000000    -4.391000000    -5.902000000
H    -0.707000000    -4.421000000    -5.526000000
O     2.857000000     1.155000000    -4.702000000
H     2.917000000     1.472000000    -3.801000000
H     2.786000000     0.204000000    -4.618000000
O    -1.853000000    -4.566000000     0.661000000
H    -1.019000000    -4.978000000     0.436000000
H    -1.808000000    -4.435000000     1.608000000
O     5.888000000    -1.627000000    -1.091000000
H     6.522000000    -1.529000000    -1.802000000
H     6.101000000    -2.473000000    -0.696000000
O     0.247000000    -1.145000000    -4.856000000
H    -0.640000000    -0.992000000    -4.532000000
H     0.428000000    -0.395000000    -5.421000000
O    -6.673000000    -3.409000000    -0.068000000
H    -6.716000000    -3.730000000     0.833000000
H    -5.764000000    -3.130000000    -0.179000000
O     4.686000000    -4.037000000     1.419000000
H     4.483000000    -3.153000000     1.727000000
H     5.476000000    -3.930000000     0.889000000
O     1.757000000     5.973000000     1.761000000
H     1.668000000     5.042000000     1.556000000
H     2.640000000     6.055000000     2.122000000
O    -4.848000000     0.050000000    -2.061000000
H    -5.141000000     0.859000000    -1.642000000
H    -5.572000000    -0.562000000    -1.933000000
O    -2.961000000    -2.502000000    -4.888000000
H    -2.541000000    -1.743000000    -4.484000000
H    -3.435000000    -2.924000000    -4.171000000
O    -2.355000000    -2.569000000     3.160000000
H    -2.532000000    -2.150000000     2.318000000
H    -1.681000000    -2.023000000     3.563000000
O    -2.233000000    -0.302000000    -3.344000000
H    -1.528000000    -0.561000000    -2.751000000
H    -2.991000000    -0.176000000    -2.773000000
O    -4.384000000    -3.767000000    -2.877000000
H    -4.366000000    -3.579000000    -1.938000000
H    -5.315000000    -3.770000000    -3.102000000
O    -2.031000000     8.232000000     2.859000000
H    -2.368000000     7.427000000     2.467000000
H    -1.184000000     7.982000000     3.229000000
O     1.174000000     3.732000000     5.320000000
H     0.639000000     4.451000000     4.984000000
H     1.140000000     3.832000000     6.271000000
O     1.132000000     8.227000000    -0.248000000
H     0.843000000     8.311000000    -1.157000000
H     1.223000000     7.283000000    -0.112000000
O     3.875000000     0.784000000     3.941000000
H     3.452000000     1.628000000     3.786000000
H     4.555000000     0.971000000     4.588000000
O    -0.666000000    -1.172000000     4.690000000
H    -0.285000000    -2.012000000     4.946000000
H    -0.051000000    -0.518000000     5.022000000
O    -3.712000000     3.335000000    -1.221000000
H    -3.098000000     3.632000000    -1.892000000
H    -3.156000000     2.996000000    -0.520000000
O     2.559000000     3.379000000     2.982000000
H     1.818000000     3.120000000     2.433000000
H     2.206000000     3.390000000     3.871000000
O     0.985000000     8.727000000     2.934000000
H     1.884000000     9.044000000     3.026000000
H     1.035000000     8.056000000     2.254000000
O     1.220000000     0.631000000     4.980000000
H     1.365000000     1.576000000     5.028000000
H     2.013000000     0.288000000     4.568000000
O    -1.913000000     2.269000000    -5.040000000
H    -2.112000000     2.976000000    -4.426000000
H    -1.698000000     1.521000000    -4.483000000
O    -4.077000000    -3.055000000    -0.379000000
H    -4.023000000    -2.221000000     0.088000000
H    -3.327000000    -3.558000000    -0.059000000
O    -6.340000000     2.533000000    -1.519000000
H    -6.363000000     2.825000000    -2.430000000
H    -5.535000000     2.913000000    -1.166000000
O    -2.032000000    -5.045000000    -2.625000000
H    -2.774000000    -4.449000000    -2.720000000
H    -1.695000000    -5.152000000    -3.515000000
O    -6.689000000    -0.897000000     0.499000000
H    -7.445000000    -0.312000000     0.558000000
H    -7.057000000    -1.734000000     0.216000000
O     5.040000000     0.160000000     0.665000000
H     5.219000000    -0.444000000    -0.056000000
H     5.120000000    -0.376000000     1.453000000
O    -0.097000000     5.377000000     3.687000000
H     0.569000000     6.047000000     3.536000000
H    -0.273000000     5.013000000     2.819000000
O     4.049000000    -1.819000000     2.648000000
H     3.848000000    -2.316000000     3.441000000
H     3.820000000    -0.916000000     2.867000000
O     0.769000000    -6.208000000     0.053000000
H     1.400000000    -5.690000000     0.553000000
H     1.083000000    -7.109000000     0.134000000
O    -3.285000000    -6.741000000    -0.984000000
H    -2.722000000    -6.435000000    -1.694000000
H    -3.038000000    -6.202000000    -0.233000000
O    -3.786000000     1.879000000     1.932000000
H    -4.225000000     2.547000000     2.458000000
H    -3.061000000     2.343000000     1.513000000
O     3.777000000    -3.950000000    -4.087000000
H     3.597000000    -4.656000000    -3.467000000
H     3.109000000    -4.051000000    -4.766000000
O    -1.522000000     5.931000000    -0.607000000
H    -2.430000000     5.953000000    -0.306000000
H    -1.110000000     5.249000000    -0.077000000
O    -0.079000000    -5.691000000     3.423000000
H     0.728000000    -5.573000000     2.922000000
H    -0.332000000    -6.600000000     3.260000000
O     2.387000000     2.100000000    -2.111000000
H     2.035000000     1.645000000    -1.346000000
H     2.434000000     3.018000000    -1.843000000
O     1.430000000     4.581000000    -1.370000000
H     1.182000000     4.412000000    -0.461000000
H     0.852000000     5.290000000    -1.649000000
