161
-3033.29015
C     0.526000000     1.227000000     0.567000000
H     1.032000000     2.053000000     1.060000000
C     1.163000000    -0.033000000     0.748000000
H     2.069000000    -0.204000000     1.324000000
C     0.422000000    -1.152000000     0.269000000
C     0.909000000    -2.579000000     0.403000000
H     0.227000000    -3.325000000     0.814000000
H     1.192000000    -3.030000000    -0.551000000
H     1.728000000    -2.372000000     1.095000000
C    -0.670000000    -0.958000000    -0.564000000
H    -1.219000000    -1.799000000    -0.980000000
C    -1.186000000     0.351000000    -0.857000000
H    -2.083000000     0.476000000    -1.459000000
C    -0.602000000     1.473000000    -0.236000000
C    -1.008000000     2.901000000    -0.544000000
O    -2.200000000     3.151000000    -0.814000000
O    -0.292000000     3.816000000    -0.282000000
O     4.810000000     2.015000000     0.955000000
H     4.674000000     1.538000000     0.136000000
H     5.340000000     2.772000000     0.706000000
O     4.121000000    -6.905000000     0.550000000
H     4.966000000    -7.355000000     0.563000000
H     4.124000000    -6.367000000     1.342000000
O     1.483000000    -6.001000000     0.431000000
H     2.390000000    -6.305000000     0.425000000
H     1.107000000    -6.387000000     1.223000000
O     3.609000000     3.215000000     2.987000000
H     2.873000000     3.607000000     2.516000000
H     4.115000000     2.766000000     2.309000000
O    -2.262000000    -1.555000000    -5.688000000
H    -1.801000000    -2.350000000    -5.958000000
H    -1.566000000    -0.951000000    -5.430000000
O     4.795000000    -4.666000000     1.892000000
H     5.484000000    -4.651000000     1.228000000
H     5.197000000    -4.268000000     2.664000000
O    -4.394000000    -2.627000000     0.742000000
H    -3.787000000    -3.155000000     0.224000000
H    -4.828000000    -2.062000000     0.102000000
O    -3.822000000     5.016000000    -1.808000000
H    -4.256000000     5.384000000    -1.038000000
H    -3.143000000     4.443000000    -1.450000000
O    -3.417000000     3.154000000     3.044000000
H    -4.038000000     3.882000000     3.084000000
H    -3.541000000     2.781000000     2.171000000
O    -4.915000000     6.134000000     0.872000000
H    -4.930000000     6.209000000     1.826000000
H    -5.556000000     5.450000000     0.676000000
O     0.349000000    -5.446000000    -2.685000000
H    -0.265000000    -5.482000000    -3.419000000
H    -0.168000000    -5.101000000    -1.957000000
O    -1.547000000     3.817000000    -4.537000000
H    -0.718000000     4.022000000    -4.969000000
H    -1.555000000     4.371000000    -3.757000000
O    -2.658000000    -4.105000000     3.084000000
H    -3.416000000    -3.671000000     3.477000000
H    -2.008000000    -3.409000000     2.988000000
O    -6.913000000     4.587000000     0.234000000
H    -7.329000000     4.039000000     0.899000000
H    -6.719000000     3.986000000    -0.485000000
O     3.326000000    -0.862000000    -2.943000000
H     2.495000000    -1.252000000    -3.211000000
H     3.980000000    -1.534000000    -3.137000000
O    -0.600000000     0.422000000    -4.611000000
H    -1.370000000     0.991000000    -4.622000000
H    -0.441000000     0.253000000    -3.682000000
O     5.508000000     0.096000000     3.152000000
H     4.990000000    -0.634000000     3.492000000
H     5.184000000     0.861000000     3.627000000
O     1.456000000     7.527000000    -1.804000000
H     1.397000000     6.701000000    -2.284000000
H     1.169000000     8.190000000    -2.432000000
O    -4.750000000     0.378000000    -2.108000000
H    -4.953000000    -0.478000000    -2.483000000
H    -4.621000000     0.206000000    -1.175000000
O     0.174000000    -2.866000000     4.408000000
H     0.928000000    -3.380000000     4.120000000
H     0.341000000    -1.986000000     4.072000000
O    -0.207000000    -7.556000000     2.150000000
H    -1.067000000    -7.974000000     2.174000000
H     0.368000000    -8.162000000     2.616000000
O    -3.446000000     1.324000000    -4.492000000
H    -3.394000000     2.278000000    -4.425000000
H    -4.027000000     1.066000000    -3.777000000
O    -1.558000000     8.315000000    -1.553000000
H    -2.483000000     8.382000000    -1.317000000
H    -1.134000000     7.973000000    -0.765000000
O    -0.522000000     2.934000000     3.091000000
H    -1.465000000     2.893000000     2.936000000
H    -0.425000000     2.754000000     4.026000000
O     2.609000000    -3.951000000     3.445000000
H     3.281000000    -4.056000000     2.772000000
H     2.619000000    -4.778000000     3.927000000
O     0.484000000     0.112000000     3.549000000
H     0.374000000     0.943000000     4.012000000
H     0.296000000     0.322000000     2.634000000
O    -2.910000000    -1.005000000     4.325000000
H    -2.738000000    -0.747000000     5.230000000
H    -2.060000000    -0.932000000     3.890000000
O    -4.739000000     4.328000000    -4.253000000
H    -4.558000000     4.497000000    -3.329000000
H    -4.277000000     5.024000000    -4.719000000
O     1.750000000     7.165000000     0.856000000
H     1.491000000     7.195000000    -0.065000000
H     1.664000000     6.243000000     1.099000000
O     1.372000000     4.693000000     1.845000000
H     0.857000000     4.492000000     1.063000000
H     0.901000000     4.262000000     2.559000000
O     0.145000000     7.887000000     3.005000000
H     0.399000000     7.469000000     2.183000000
H     0.973000000     8.156000000     3.403000000
O     2.835000000    -4.514000000    -2.043000000
H     2.114000000    -4.872000000    -2.560000000
H     2.616000000    -4.737000000    -1.139000000
O     5.076000000     4.773000000    -0.466000000
H     4.371000000     4.452000000    -1.029000000
H     5.393000000     5.562000000    -0.906000000
O    -6.153000000     2.771000000    -1.701000000
H    -6.920000000     2.617000000    -2.253000000
H    -5.658000000     1.953000000    -1.745000000
O    -3.019000000    -2.113000000    -2.830000000
H    -3.875000000    -2.406000000    -3.144000000
H    -2.477000000    -2.069000000    -3.618000000
O     3.284000000     3.414000000     5.870000000
H     4.159000000     3.091000000     6.083000000
H     3.205000000     3.285000000     4.925000000
O     7.069000000    -1.816000000     1.135000000
H     6.592000000    -1.183000000     1.672000000
H     7.733000000    -2.176000000     1.724000000
O    -1.834000000     5.741000000     0.871000000
H    -1.406000000     5.099000000     0.303000000
H    -2.770000000     5.603000000     0.725000000
O     3.603000000    -1.274000000     4.564000000
H     3.511000000    -2.219000000     4.448000000
H     2.818000000    -0.905000000     4.158000000
O    -1.163000000    -6.870000000    -0.653000000
H    -1.008000000    -7.378000000     0.143000000
H    -0.443000000    -6.240000000    -0.680000000
O    -3.528000000    -5.533000000    -0.349000000
H    -2.706000000    -5.981000000    -0.548000000
H    -3.391000000    -5.154000000     0.519000000
O    -4.381000000     3.040000000     0.656000000
H    -4.937000000     3.291000000    -0.081000000
H    -3.550000000     2.785000000     0.254000000
O     5.232000000    -3.377000000    -2.863000000
H     4.445000000    -3.790000000    -2.506000000
H     5.957000000    -3.863000000    -2.470000000
O    -0.894000000     5.605000000    -2.545000000
H    -1.232000000     6.427000000    -2.191000000
H    -0.816000000     5.030000000    -1.784000000
O     0.327000000    -5.898000000     4.788000000
H    -0.276000000    -5.280000000     4.375000000
H     0.496000000    -6.555000000     4.113000000
O    -2.550000000     6.536000000     3.372000000
H    -2.203000000     5.993000000     2.665000000
H    -2.192000000     7.407000000     3.203000000
O     4.001000000     1.879000000    -1.781000000
H     3.542000000     1.101000000    -2.098000000
H     3.305000000     2.513000000    -1.606000000
O     2.441000000     4.292000000    -1.571000000
H     1.541000000     4.227000000    -1.254000000
H     2.353000000     4.428000000    -2.515000000
