161
-3062.61504
C     0.208000000     1.166000000     0.863000000
H     0.511000000     1.927000000     1.578000000
C     1.237000000     0.339000000     0.425000000
H     2.256000000     0.436000000     0.790000000
C     0.895000000    -0.801000000    -0.445000000
C     2.003000000    -1.702000000    -0.844000000
H     2.372000000    -1.277000000    -1.780000000
H     2.752000000    -1.819000000    -0.058000000
H     1.525000000    -2.632000000    -1.159000000
C    -0.494000000    -0.974000000    -0.785000000
H    -0.738000000    -1.862000000    -1.362000000
C    -1.496000000    -0.083000000    -0.378000000
H    -2.515000000    -0.054000000    -0.755000000
C    -1.124000000     0.955000000     0.500000000
C    -2.183000000     1.880000000     0.986000000
O    -3.317000000     1.972000000     0.494000000
O    -1.899000000     2.523000000     1.924000000
O    -3.654000000     2.723000000    -2.123000000
H    -2.836000000     3.194000000    -2.288000000
H    -3.556000000     2.376000000    -1.237000000
O    -6.557000000    -1.287000000    -3.676000000
H    -6.496000000    -0.441000000    -3.232000000
H    -6.708000000    -1.065000000    -4.594000000
O     1.869000000    -3.281000000     3.361000000
H     2.307000000    -4.051000000     2.998000000
H     1.039000000    -3.232000000     2.886000000
O     1.161000000    -4.742000000    -4.370000000
H     0.264000000    -4.421000000    -4.282000000
H     1.240000000    -4.982000000    -5.293000000
O     3.733000000     4.240000000     4.103000000
H     4.582000000     4.260000000     4.544000000
H     3.105000000     4.490000000     4.781000000
O    -1.440000000    -3.402000000    -4.787000000
H    -1.018000000    -2.552000000    -4.911000000
H    -1.734000000    -3.393000000    -3.876000000
O     5.107000000    -4.607000000    -2.801000000
H     5.204000000    -3.964000000    -2.098000000
H     4.435000000    -4.237000000    -3.373000000
O     0.291000000     3.228000000     5.588000000
H     0.439000000     3.560000000     4.702000000
H     0.226000000     2.279000000     5.480000000
O     5.970000000     4.138000000     0.968000000
H     5.387000000     4.215000000     0.213000000
H     5.994000000     3.200000000     1.157000000
O    -2.422000000    -4.337000000    -2.063000000
H    -2.971000000    -5.094000000    -1.855000000
H    -1.647000000    -4.444000000    -1.512000000
O     5.061000000    -0.448000000     0.635000000
H     5.614000000     0.269000000     0.944000000
H     4.835000000    -0.935000000     1.428000000
O    -0.595000000    -2.962000000     1.815000000
H    -1.394000000    -3.306000000     1.416000000
H    -0.207000000    -2.409000000     1.137000000
O     4.751000000     1.403000000    -1.356000000
H     4.706000000     0.657000000    -0.758000000
H     5.674000000     1.658000000    -1.352000000
O    -0.633000000    -0.878000000    -4.926000000
H    -1.295000000    -0.520000000    -5.519000000
H    -0.362000000    -0.132000000    -4.392000000
O     3.995000000    -5.161000000     2.165000000
H     4.831000000    -4.699000000     2.109000000
H     4.086000000    -5.896000000     1.559000000
O     0.881000000     5.080000000    -1.879000000
H     1.720000000     4.660000000    -1.690000000
H     0.443000000     5.134000000    -1.029000000
O     2.259000000     2.387000000    -5.033000000
H     1.314000000     2.537000000    -5.019000000
H     2.460000000     2.042000000    -4.163000000
O    -3.637000000    -1.147000000    -3.933000000
H    -3.695000000    -1.635000000    -3.111000000
H    -2.998000000    -1.632000000    -4.455000000
O     3.144000000     3.653000000    -1.032000000
H     3.560000000     2.802000000    -1.169000000
H     2.982000000     3.692000000    -0.090000000
O    -5.643000000    -2.349000000     0.525000000
H    -5.704000000    -1.417000000     0.737000000
H    -5.498000000    -2.371000000    -0.421000000
O     6.015000000    -2.558000000    -1.063000000
H     5.677000000    -1.921000000    -0.434000000
H     6.237000000    -2.038000000    -1.836000000
O    -4.316000000     1.234000000    -5.092000000
H    -4.077000000     0.370000000    -4.756000000
H    -4.128000000     1.833000000    -4.368000000
O    -3.614000000     6.242000000    -0.503000000
H    -4.531000000     6.254000000    -0.230000000
H    -3.619000000     6.635000000    -1.376000000
O     4.659000000     0.210000000     4.406000000
H     4.765000000     0.965000000     4.985000000
H     4.390000000    -0.502000000     4.987000000
O    -2.487000000     7.380000000     3.903000000
H    -2.641000000     6.436000000     3.954000000
H    -1.820000000     7.550000000     4.567000000
O    -2.696000000     4.532000000     5.372000000
H    -1.890000000     4.087000000     5.633000000
H    -2.841000000     5.186000000     6.056000000
O     2.229000000     1.733000000     3.397000000
H     2.975000000     1.788000000     3.995000000
H     2.336000000     2.482000000     2.811000000
O    -4.947000000    -0.880000000     3.342000000
H    -5.331000000    -0.124000000     3.786000000
H    -5.472000000    -0.984000000     2.549000000
O    -5.429000000     0.552000000     0.833000000
H    -4.635000000     1.087000000     0.804000000
H    -6.002000000     1.008000000     1.450000000
O     6.529000000     1.542000000     1.719000000
H     7.478000000     1.433000000     1.773000000
H     6.234000000     1.538000000     2.629000000
O    -1.107000000     3.406000000    -2.977000000
H    -0.481000000     3.952000000    -2.503000000
H    -0.877000000     3.522000000    -3.899000000
O    -0.273000000     4.281000000     3.098000000
H    -0.233000000     4.877000000     2.350000000
H    -0.901000000     3.608000000     2.834000000
O    -0.070000000     0.734000000     4.651000000
H    -0.771000000     0.386000000     4.099000000
H     0.662000000     0.871000000     4.049000000
O     2.399000000     4.551000000     1.821000000
H     1.730000000     5.202000000     2.033000000
H     2.910000000     4.463000000     2.626000000
O    -5.217000000     4.694000000    -3.044000000
H    -5.665000000     4.302000000    -3.794000000
H    -4.508000000     4.084000000    -2.843000000
O    -5.904000000     0.947000000    -1.912000000
H    -5.720000000     0.474000000    -1.100000000
H    -5.155000000     1.534000000    -2.021000000
O    -5.751000000     1.730000000     4.765000000
H    -5.078000000     2.137000000     4.220000000
H    -5.574000000     2.055000000     5.648000000
O     6.620000000    -1.104000000    -3.330000000
H     6.123000000    -0.340000000    -3.623000000
H     6.500000000    -1.749000000    -4.027000000
O     4.988000000    -2.065000000     2.983000000
H     4.927000000    -1.237000000     3.460000000
H     4.257000000    -2.586000000     3.313000000
O    -3.820000000     3.205000000     3.462000000
H    -3.105000000     2.883000000     2.912000000
H    -3.385000000     3.704000000     4.153000000
O    -2.164000000    -0.957000000     3.807000000
H    -3.006000000    -1.021000000     3.356000000
H    -1.621000000    -1.629000000     3.396000000
O    -0.099000000    -5.078000000    -0.614000000
H    -0.363000000    -5.793000000    -0.034000000
H     0.834000000    -5.226000000    -0.766000000
O     3.591000000    -3.278000000    -4.716000000
H     2.752000000    -3.739000000    -4.712000000
H     3.699000000    -2.986000000    -5.621000000
O    -5.103000000     4.203000000     1.194000000
H    -4.358000000     3.801000000     0.748000000
H    -4.977000000     3.983000000     2.117000000
O    -3.253000000    -3.514000000     1.418000000
H    -3.334000000    -4.417000000     1.110000000
H    -4.105000000    -3.120000000     1.230000000
O     2.289000000    -5.943000000    -1.948000000
H     2.897000000    -6.612000000    -2.260000000
H     1.983000000    -5.507000000    -2.743000000
O     0.377000000     0.863000000    -3.145000000
H    -0.145000000     1.570000000    -2.764000000
H     0.480000000     0.232000000    -2.432000000
O    -1.322000000     4.803000000     0.287000000
H    -1.593000000     3.980000000     0.693000000
H    -2.140000000     5.211000000     0.003000000
