161
-3061.88513
C    -0.226000000    -1.201000000    -0.836000000
H    -0.446000000    -1.998000000    -1.541000000
C    -0.411000000     0.093000000    -1.230000000
H    -0.728000000     0.323000000    -2.244000000
C    -0.284000000     1.140000000    -0.347000000
C    -0.435000000     2.552000000    -0.813000000
H    -1.330000000     3.062000000    -0.451000000
H     0.433000000     3.168000000    -0.566000000
H    -0.253000000     2.527000000    -1.889000000
C     0.195000000     0.876000000     0.985000000
H     0.249000000     1.692000000     1.701000000
C     0.379000000    -0.407000000     1.389000000
H     0.677000000    -0.552000000     2.424000000
C     0.193000000    -1.472000000     0.455000000
C     0.619000000    -2.895000000     0.848000000
O     1.114000000    -3.070000000     1.936000000
O     0.252000000    -3.835000000     0.179000000
O     3.701000000     6.017000000     1.705000000
H     3.994000000     5.890000000     2.608000000
H     2.794000000     6.312000000     1.787000000
O    -1.049000000     4.556000000     4.074000000
H    -0.768000000     4.843000000     3.205000000
H    -1.481000000     3.716000000     3.920000000
O     1.846000000     4.590000000    -2.680000000
H     2.074000000     5.397000000    -3.142000000
H     2.541000000     4.482000000    -2.030000000
O    -1.948000000    -4.879000000    -0.998000000
H    -1.821000000    -5.578000000    -1.640000000
H    -1.068000000    -4.690000000    -0.673000000
O     2.352000000    -7.914000000    -1.860000000
H     1.614000000    -8.472000000    -2.107000000
H     1.962000000    -7.225000000    -1.323000000
O     4.933000000     0.131000000     4.658000000
H     4.002000000     0.353000000     4.687000000
H     5.099000000    -0.084000000     3.741000000
O    -2.246000000     6.698000000    -2.613000000
H    -2.494000000     7.031000000    -3.476000000
H    -3.071000000     6.648000000    -2.130000000
O    -2.527000000    -1.186000000    -6.023000000
H    -1.630000000    -1.315000000    -5.715000000
H    -2.492000000    -1.391000000    -6.957000000
O    -0.131000000    -5.492000000     2.587000000
H     0.484000000    -4.822000000     2.288000000
H    -0.929000000    -5.326000000     2.085000000
O     0.147000000    -2.717000000    -4.004000000
H     0.646000000    -3.075000000    -4.737000000
H     0.408000000    -1.797000000    -3.963000000
O     3.081000000    -6.500000000     4.990000000
H     3.260000000    -6.085000000     5.833000000
H     2.836000000    -5.777000000     4.413000000
O    -2.113000000     6.522000000     1.868000000
H    -2.434000000     5.636000000     1.697000000
H    -2.848000000     6.966000000     2.290000000
O    -3.379000000    -3.823000000    -5.302000000
H    -3.052000000    -3.184000000    -4.668000000
H    -3.353000000    -4.658000000    -4.835000000
O     0.891000000    -3.419000000     6.843000000
H     1.836000000    -3.442000000     6.695000000
H     0.519000000    -3.215000000     5.985000000
O    -1.550000000    -0.373000000     5.128000000
H    -1.030000000    -0.003000000     5.841000000
H    -1.068000000    -1.156000000     4.862000000
O     3.432000000    -2.559000000    -4.236000000
H     3.508000000    -3.135000000    -3.476000000
H     3.304000000    -3.153000000    -4.976000000
O     3.172000000     1.280000000     2.576000000
H     2.674000000     2.004000000     2.955000000
H     3.214000000     1.482000000     1.641000000
O    -5.024000000    -1.631000000    -2.612000000
H    -4.930000000    -1.236000000    -1.745000000
H    -4.139000000    -1.911000000    -2.844000000
O    -2.908000000    -5.340000000     1.499000000
H    -2.614000000    -5.166000000     0.605000000
H    -3.814000000    -5.633000000     1.401000000
O     1.032000000     6.575000000     2.597000000
H     0.899000000     6.532000000     1.650000000
H     0.429000000     7.258000000     2.893000000
O    -0.313000000     6.661000000    -0.136000000
H    -0.607000000     6.331000000    -0.985000000
H    -1.109000000     6.695000000     0.395000000
O     2.335000000     2.437000000    -4.116000000
H     1.977000000     3.060000000    -3.484000000
H     3.256000000     2.348000000    -3.869000000
O     3.556000000    -2.111000000     1.208000000
H     3.371000000    -1.186000000     1.048000000
H     2.700000000    -2.500000000     1.385000000
O     1.387000000    -6.259000000     0.226000000
H     0.919000000    -5.499000000    -0.121000000
H     1.004000000    -6.401000000     1.091000000
O    -2.416000000    -2.669000000    -2.940000000
H    -1.523000000    -2.667000000    -3.283000000
H    -2.339000000    -3.069000000    -2.074000000
O     3.022000000     1.056000000    -0.414000000
H     2.178000000     0.608000000    -0.470000000
H     2.862000000     1.919000000    -0.794000000
O    -2.420000000    -4.288000000     4.102000000
H    -2.723000000    -4.496000000     3.218000000
H    -2.649000000    -5.059000000     4.621000000
O     4.270000000    -5.384000000     1.401000000
H     4.727000000    -5.110000000     0.606000000
H     3.423000000    -5.705000000     1.092000000
O    -3.529000000     4.190000000     0.929000000
H    -4.064000000     3.406000000     1.062000000
H    -4.160000000     4.875000000     0.708000000
O     2.061000000     1.429000000     5.684000000
H     1.174000000     1.462000000     6.042000000
H     1.984000000     1.829000000     4.817000000
O    -3.452000000    -1.219000000     2.763000000
H    -3.598000000    -2.072000000     3.171000000
H    -2.626000000    -0.913000000     3.137000000
O    -0.796000000     2.147000000    -4.324000000
H    -0.736000000     1.231000000    -4.596000000
H     0.069000000     2.510000000    -4.510000000
O    -1.386000000    -7.216000000    -2.232000000
H    -1.705000000    -7.298000000    -3.131000000
H    -0.977000000    -8.060000000    -2.045000000
O     2.736000000    -4.119000000     3.408000000
H     3.468000000    -4.364000000     2.841000000
H     2.148000000    -3.623000000     2.839000000
O    -4.107000000     1.531000000     1.247000000
H    -4.585000000     1.406000000     2.067000000
H    -4.087000000     0.661000000     0.847000000
O    -0.207000000    -2.729000000     4.231000000
H    -1.027000000    -3.210000000     4.119000000
H     0.358000000    -3.052000000     3.529000000
O     1.743000000     3.718000000     3.826000000
H     0.823000000     3.982000000     3.831000000
H     2.227000000     4.534000000     3.949000000
O    -5.605000000     0.774000000    -0.956000000
H    -5.235000000     1.356000000    -0.292000000
H    -5.028000000     0.877000000    -1.712000000
O     1.628000000    -0.196000000    -4.066000000
H     2.374000000    -0.793000000    -4.123000000
H     2.012000000     0.677000000    -4.149000000
O    -1.689000000     2.032000000     3.279000000
H    -1.679000000     1.247000000     3.827000000
H    -2.037000000     1.731000000     2.439000000
O     3.187000000    -2.681000000     5.710000000
H     3.011000000    -3.216000000     4.936000000
H     3.606000000    -1.892000000     5.365000000
O    -2.439000000     4.147000000    -3.696000000
H    -2.009000000     4.786000000    -3.128000000
H    -1.778000000     3.469000000    -3.837000000
O    -3.924000000     1.489000000    -2.865000000
H    -3.743000000     2.424000000    -2.772000000
H    -3.118000000     1.125000000    -3.232000000
O     0.149000000    -0.587000000    -6.439000000
H     0.741000000    -1.028000000    -7.048000000
H     0.673000000    -0.456000000    -5.648000000
O     5.761000000    -0.969000000     2.228000000
H     6.249000000    -1.681000000     2.642000000
H     4.956000000    -1.381000000     1.915000000
O     2.880000000    -4.140000000    -1.885000000
H     2.798000000    -5.081000000    -1.733000000
H     2.044000000    -3.776000000    -1.595000000
O    -3.791000000    -1.493000000     0.039000000
H    -4.038000000    -1.687000000     0.944000000
H    -2.849000000    -1.329000000     0.078000000
O     3.600000000     4.085000000    -0.477000000
H     4.522000000     3.897000000    -0.653000000
H     3.612000000     4.616000000     0.319000000
