161
-3061.02860
C     0.086000000     0.204000000    -1.500000000
H     0.076000000     0.329000000    -2.580000000
C    -0.761000000    -0.693000000    -0.802000000
H    -1.447000000    -1.324000000    -1.362000000
C    -0.784000000    -0.787000000     0.567000000
C    -1.575000000    -1.872000000     1.267000000
H    -1.279000000    -2.867000000     0.929000000
H    -1.468000000    -1.834000000     2.354000000
H    -2.606000000    -1.804000000     0.914000000
C     0.078000000     0.091000000     1.239000000
H     0.201000000     0.094000000     2.319000000
C     0.958000000     0.936000000     0.677000000
H     1.646000000     1.505000000     1.297000000
C     0.868000000     1.045000000    -0.730000000
C     1.793000000     2.006000000    -1.378000000
O     2.594000000     2.604000000    -0.676000000
O     1.614000000     2.365000000    -2.536000000
O     5.250000000     6.134000000    -4.487000000
H     4.770000000     6.264000000    -5.305000000
H     4.698000000     5.542000000    -3.977000000
O     6.540000000     1.112000000    -3.610000000
H     6.715000000     0.387000000    -4.211000000
H     5.871000000     0.773000000    -3.015000000
O     0.839000000     2.005000000    -5.200000000
H     0.889000000     2.870000000    -5.606000000
H     0.902000000     2.177000000    -4.261000000
O     1.618000000    -6.472000000     3.801000000
H     1.402000000    -5.628000000     3.405000000
H     2.441000000    -6.728000000     3.385000000
O     3.645000000     1.294000000    -4.084000000
H     2.881000000     1.825000000    -3.857000000
H     4.027000000     1.050000000    -3.241000000
O     4.296000000    -1.844000000     1.275000000
H     4.997000000    -1.674000000     1.905000000
H     4.124000000    -0.993000000     0.873000000
O    -5.732000000     2.236000000    -1.605000000
H    -5.187000000     1.487000000    -1.362000000
H    -5.390000000     2.960000000    -1.081000000
O    -3.587000000     3.153000000     3.372000000
H    -2.799000000     3.117000000     3.914000000
H    -4.117000000     3.846000000     3.767000000
O     2.616000000     0.183000000     5.322000000
H     3.058000000    -0.557000000     4.907000000
H     3.256000000     0.526000000     5.945000000
O    -0.544000000     4.094000000    -2.507000000
H     0.347000000     3.762000000    -2.390000000
H    -1.096000000     3.468000000    -2.039000000
O    -1.145000000    -0.740000000     4.687000000
H    -2.044000000    -0.416000000     4.748000000
H    -0.653000000    -0.197000000     5.303000000
O    -1.811000000     0.841000000    -4.580000000
H    -0.988000000     1.283000000    -4.790000000
H    -2.375000000     1.533000000    -4.237000000
O     0.416000000    -1.691000000     7.357000000
H     1.017000000    -1.453000000     6.652000000
H     0.536000000    -1.007000000     8.016000000
O    -2.376000000    -1.858000000    -4.803000000
H    -2.185000000    -0.920000000    -4.805000000
H    -3.328000000    -1.909000000    -4.715000000
O    -3.880000000     0.314000000    -0.580000000
H    -3.991000000    -0.571000000    -0.926000000
H    -3.890000000     0.202000000     0.370000000
O     4.395000000     1.015000000     0.529000000
H     3.822000000     1.690000000     0.164000000
H     5.108000000     1.504000000     0.941000000
O    -6.396000000    -0.227000000     2.118000000
H    -6.868000000     0.495000000     2.533000000
H    -5.474000000     0.023000000     2.179000000
O     4.247000000    -0.114000000    -6.397000000
H     4.856000000     0.451000000    -6.874000000
H     3.826000000     0.468000000    -5.765000000
O     3.120000000     4.687000000    -3.165000000
H     2.768000000     3.930000000    -2.696000000
H     2.419000000     5.338000000    -3.129000000
O    -3.839000000    -1.297000000     4.104000000
H    -3.352000000    -2.121000000     4.104000000
H    -4.642000000    -1.493000000     4.587000000
O    -3.241000000    -5.764000000    -0.180000000
H    -3.043000000    -4.839000000    -0.328000000
H    -2.583000000    -6.234000000    -0.692000000
O    -5.092000000    -2.428000000    -1.432000000
H    -5.465000000    -2.053000000    -2.230000000
H    -4.448000000    -3.063000000    -1.744000000
O     1.978000000    -3.918000000     2.564000000
H     2.309000000    -3.395000000     3.295000000
H     2.625000000    -3.796000000     1.870000000
O    -6.868000000    -2.457000000     0.617000000
H    -6.169000000    -2.414000000    -0.036000000
H    -6.779000000    -1.645000000     1.116000000
O     2.279000000     4.395000000     1.803000000
H     1.514000000     4.961000000     1.897000000
H     2.026000000     3.758000000     1.135000000
O     3.429000000     3.382000000     4.398000000
H     3.140000000     3.009000000     3.565000000
H     2.619000000     3.640000000     4.838000000
O    -1.542000000     3.302000000     5.122000000
H    -2.145000000     3.120000000     5.842000000
H    -0.933000000     2.564000000     5.126000000
O     6.814000000     5.025000000     1.409000000
H     6.046000000     5.436000000     1.807000000
H     6.452000000     4.383000000     0.798000000
O     4.785000000     4.001000000    -0.595000000
H     5.015000000     4.065000000    -1.522000000
H     3.917000000     3.597000000    -0.591000000
O     4.497000000     5.820000000     2.694000000
H     3.782000000     5.440000000     2.182000000
H     4.481000000     5.338000000     3.520000000
O    -0.895000000    -4.651000000     6.902000000
H    -0.530000000    -3.859000000     6.507000000
H    -1.566000000    -4.940000000     6.284000000
O    -0.174000000    -3.221000000     4.395000000
H    -0.342000000    -2.404000000     4.865000000
H     0.252000000    -2.946000000     3.583000000
O     1.484000000    -0.547000000    -4.665000000
H     1.280000000     0.362000000    -4.886000000
H     2.288000000    -0.493000000    -4.149000000
O     4.200000000     6.630000000    -0.720000000
H     5.080000000     6.859000000    -1.018000000
H     4.228000000     5.681000000    -0.598000000
O     2.878000000    -4.916000000    -1.055000000
H     2.253000000    -4.231000000    -1.291000000
H     2.711000000    -5.619000000    -1.684000000
O     0.851000000     5.966000000    -4.034000000
H     1.016000000     5.709000000    -4.941000000
H    -0.021000000     5.621000000    -3.842000000
O     0.262000000     1.353000000     6.084000000
H     0.479000000     1.791000000     6.907000000
H     1.110000000     1.116000000     5.709000000
O    -1.373000000    -6.948000000     2.231000000
H    -1.779000000    -7.678000000     1.764000000
H    -1.475000000    -6.201000000     1.641000000
O    -1.859000000    -5.598000000     4.635000000
H    -1.820000000    -6.111000000     3.828000000
H    -1.110000000    -5.004000000     4.577000000
O    -1.924000000     2.420000000    -0.611000000
H    -2.636000000     1.791000000    -0.730000000
H    -1.219000000     1.910000000    -0.211000000
O     2.202000000     4.479000000    -6.398000000
H     2.602000000     4.905000000    -7.156000000
H     2.942000000     4.133000000    -5.899000000
O     0.978000000    -3.793000000    -5.924000000
H     0.905000000    -2.938000000    -6.348000000
H     0.704000000    -3.637000000    -5.021000000
O    -3.754000000     0.521000000     2.100000000
H    -3.604000000     0.004000000     2.891000000
H    -3.672000000     1.430000000     2.389000000
O    -0.092000000    -2.757000000    -3.493000000
H     0.159000000    -1.934000000    -3.912000000
H    -1.030000000    -2.839000000    -3.668000000
O     4.675000000     0.048000000    -1.876000000
H     4.507000000    -0.879000000    -1.708000000
H     4.704000000     0.447000000    -1.007000000
O     2.087000000    -2.068000000    -1.619000000
H     1.361000000    -2.348000000    -2.176000000
H     1.778000000    -1.260000000    -1.210000000
O     4.638000000     3.255000000    -5.944000000
H     4.179000000     2.742000000    -5.280000000
H     5.557000000     3.225000000    -5.677000000
O    -3.093000000    -4.461000000    -2.678000000
H    -3.771000000    -4.766000000    -3.281000000
H    -2.297000000    -4.907000000    -2.968000000
