161
-3040.28388
C    -0.987000000     0.374000000    -1.099000000
H    -1.589000000     0.513000000    -1.993000000
C    -0.850000000    -0.886000000    -0.537000000
H    -1.534000000    -1.660000000    -0.876000000
C     0.123000000    -1.120000000     0.454000000
C     0.314000000    -2.455000000     1.035000000
H     0.122000000    -3.209000000     0.269000000
H     1.366000000    -2.674000000     1.228000000
H    -0.283000000    -2.695000000     1.917000000
C     0.940000000    -0.112000000     0.947000000
H     1.650000000    -0.285000000     1.752000000
C     0.805000000     1.162000000     0.348000000
H     1.481000000     1.944000000     0.683000000
C    -0.172000000     1.407000000    -0.575000000
C    -0.406000000     2.857000000    -1.034000000
O     0.214000000     3.769000000    -0.600000000
O    -1.187000000     3.077000000    -1.921000000
O     1.024000000     7.730000000    -2.444000000
H     1.006000000     6.806000000    -2.191000000
H     0.566000000     7.757000000    -3.284000000
O     2.852000000     2.454000000    -3.992000000
H     3.176000000     1.968000000    -4.750000000
H     3.427000000     2.188000000    -3.274000000
O    -4.643000000     3.483000000    -4.080000000
H    -3.922000000     3.948000000    -4.504000000
H    -4.361000000     3.382000000    -3.171000000
O     0.428000000     8.513000000     0.503000000
H     0.249000000     8.112000000     1.353000000
H     1.194000000     8.044000000     0.172000000
O    -1.359000000    -4.726000000     5.701000000
H    -0.627000000    -5.099000000     5.209000000
H    -0.977000000    -4.468000000     6.540000000
O    -0.366000000     1.910000000    -4.476000000
H    -0.587000000     2.460000000    -3.725000000
H     0.572000000     1.744000000    -4.384000000
O     2.754000000     2.783000000     3.426000000
H     3.370000000     2.056000000     3.336000000
H     2.345000000     2.647000000     4.280000000
O     4.391000000     0.405000000     3.448000000
H     4.013000000     0.248000000     4.313000000
H     5.337000000     0.356000000     3.588000000
O    -1.703000000     5.834000000    -0.604000000
H    -1.020000000     5.164000000    -0.615000000
H    -1.928000000     5.931000000     0.322000000
O     1.815000000    -2.534000000    -4.913000000
H     1.334000000    -1.893000000    -4.390000000
H     1.887000000    -3.301000000    -4.345000000
O     3.655000000    -6.953000000    -0.065000000
H     4.038000000    -6.241000000     0.448000000
H     2.771000000    -6.651000000    -0.270000000
O     3.156000000    -2.552000000     3.797000000
H     4.068000000    -2.841000000     3.802000000
H     3.169000000    -1.710000000     4.251000000
O     1.132000000    -5.925000000    -0.682000000
H     0.598000000    -5.151000000    -0.502000000
H     0.761000000    -6.289000000    -1.486000000
O     4.350000000     5.316000000    -2.333000000
H     4.099000000     4.660000000    -1.683000000
H     3.584000000     5.884000000    -2.408000000
O     4.776000000     1.643000000    -0.362000000
H     4.149000000     2.366000000    -0.377000000
H     5.422000000     1.900000000     0.296000000
O     2.734000000     6.944000000     0.244000000
H     2.582000000     6.093000000     0.655000000
H     3.108000000     7.483000000     0.941000000
O    -3.432000000     1.445000000     2.915000000
H    -3.475000000     0.545000000     3.239000000
H    -2.495000000     1.633000000     2.857000000
O     3.470000000    -3.553000000     0.065000000
H     4.083000000    -4.028000000     0.625000000
H     3.561000000    -2.638000000     0.331000000
O    -3.748000000     6.420000000    -2.363000000
H    -3.029000000     6.165000000    -2.941000000
H    -3.349000000     6.476000000    -1.495000000
O     1.052000000     2.013000000     5.635000000
H     0.435000000     2.520000000     6.162000000
H     0.879000000     1.103000000     5.874000000
O     0.280000000    -0.695000000     5.549000000
H    -0.432000000    -0.912000000     4.947000000
H     0.191000000    -1.327000000     6.263000000
O    -2.534000000    -7.501000000     1.047000000
H    -2.460000000    -6.569000000     1.251000000
H    -2.350000000    -7.558000000     0.110000000
O    -1.961000000    -2.075000000     4.549000000
H    -1.968000000    -2.972000000     4.883000000
H    -2.297000000    -2.149000000     3.656000000
O    -3.304000000    -2.494000000     2.270000000
H    -3.114000000    -2.114000000     1.412000000
H    -4.051000000    -3.073000000     2.115000000
O     3.063000000     3.553000000    -0.681000000
H     3.260000000     3.940000000     0.172000000
H     2.107000000     3.525000000    -0.716000000
O     3.077000000    -0.304000000     5.711000000
H     2.133000000    -0.444000000     5.643000000
H     3.243000000    -0.248000000     6.652000000
O     0.623000000     5.003000000     1.970000000
H     0.434000000     4.787000000     1.057000000
H     0.725000000     4.154000000     2.401000000
O     0.872000000     5.113000000    -3.011000000
H     1.614000000     4.634000000    -3.379000000
H     0.552000000     4.553000000    -2.304000000
O    -4.407000000    -0.874000000     0.020000000
H    -4.593000000     0.064000000    -0.037000000
H    -4.489000000    -1.189000000    -0.880000000
O     1.258000000    -4.528000000     3.428000000
H     1.969000000    -3.970000000     3.742000000
H     1.279000000    -4.430000000     2.476000000
O     4.517000000    -1.036000000     0.900000000
H     4.652000000    -0.633000000     1.757000000
H     4.485000000    -0.299000000     0.291000000
O     3.940000000    -2.768000000    -2.608000000
H     3.685000000    -2.973000000    -1.708000000
H     4.255000000    -3.599000000    -2.962000000
O    -3.790000000     3.402000000    -1.193000000
H    -3.975000000     3.881000000    -0.385000000
H    -2.853000000     3.532000000    -1.340000000
O    -0.305000000     1.593000000    -7.165000000
H     0.594000000     1.271000000    -7.238000000
H    -0.448000000     1.693000000    -6.224000000
O    -3.203000000    -5.393000000     3.851000000
H    -2.640000000    -4.914000000     4.459000000
H    -2.597000000    -5.913000000     3.323000000
O    -1.735000000    -4.712000000     0.870000000
H    -1.677000000    -4.610000000    -0.080000000
H    -2.115000000    -3.889000000     1.177000000
O    -5.200000000    -3.884000000     0.788000000
H    -5.479000000    -4.643000000     0.275000000
H    -5.447000000    -3.130000000     0.253000000
O    -1.838000000    -4.720000000    -1.922000000
H    -2.649000000    -4.552000000    -2.402000000
H    -1.411000000    -5.423000000    -2.411000000
O    -2.321000000     6.323000000     1.874000000
H    -1.852000000     7.155000000     1.940000000
H    -1.836000000     5.729000000     2.446000000
O    -2.039000000     4.686000000    -3.913000000
H    -1.227000000     4.865000000    -4.386000000
H    -1.760000000     4.219000000    -3.125000000
O    -0.733000000     1.509000000     3.368000000
H    -0.474000000     0.809000000     2.770000000
H     0.079000000     1.763000000     3.806000000
O    -0.159000000    -6.772000000     3.764000000
H     0.016000000    -7.412000000     3.074000000
H     0.405000000    -6.029000000     3.550000000
O    -3.208000000    -3.157000000    -3.987000000
H    -2.496000000    -3.017000000    -4.611000000
H    -3.711000000    -3.883000000    -4.357000000
O    -2.568000000     0.138000000    -4.945000000
H    -1.953000000     0.809000000    -4.649000000
H    -2.016000000    -0.614000000    -5.159000000
O     3.780000000     4.479000000     1.712000000
H     4.639000000     4.669000000     2.089000000
H     3.376000000     3.871000000     2.332000000
O     0.948000000    -0.720000000    -3.057000000
H     0.417000000    -0.618000000    -2.267000000
H     1.778000000    -0.293000000    -2.844000000
O     3.615000000     0.167000000    -2.455000000
H     4.010000000    -0.667000000    -2.711000000
H     4.053000000     0.398000000    -1.636000000
O    -4.471000000    -0.799000000    -3.108000000
H    -4.157000000    -1.704000000    -3.107000000
H    -3.979000000    -0.375000000    -3.810000000
