161
-3078.43752
C    -1.387000000     0.484000000    -0.053000000
H    -2.381000000     0.849000000    -0.302000000
C    -0.488000000     0.540000000    -1.123000000
H    -0.835000000     0.833000000    -2.110000000
C     0.797000000     0.049000000    -0.983000000
C     1.751000000    -0.183000000    -2.117000000
H     2.356000000     0.712000000    -2.271000000
H     2.460000000    -0.997000000    -1.950000000
H     1.172000000    -0.487000000    -2.992000000
C     1.165000000    -0.431000000     0.296000000
H     2.134000000    -0.869000000     0.522000000
C     0.309000000    -0.355000000     1.403000000
H     0.634000000    -0.654000000     2.396000000
C    -1.036000000     0.052000000     1.194000000
C    -1.990000000     0.189000000     2.366000000
O    -1.480000000     0.278000000     3.480000000
O    -3.181000000    -0.006000000     2.249000000
O     4.068000000     0.643000000    -4.390000000
H     4.302000000    -0.169000000    -3.940000000
H     4.897000000     0.975000000    -4.733000000
O     4.346000000    -2.558000000     0.559000000
H     4.078000000    -3.038000000     1.343000000
H     4.418000000    -1.648000000     0.848000000
O    -5.709000000    -0.536000000     6.324000000
H    -6.088000000     0.245000000     6.728000000
H    -4.764000000    -0.385000000     6.351000000
O    -2.419000000     2.655000000     7.518000000
H    -2.491000000     2.303000000     6.631000000
H    -1.597000000     2.296000000     7.853000000
O     4.412000000     3.015000000     0.010000000
H     3.852000000     3.678000000    -0.394000000
H     4.811000000     2.556000000    -0.730000000
O    -4.313000000     4.208000000     1.409000000
H    -3.395000000     4.075000000     1.642000000
H    -4.799000000     3.955000000     2.194000000
O     3.242000000     3.279000000     2.580000000
H     3.341000000     3.072000000     1.651000000
H     4.079000000     3.028000000     2.972000000
O     5.631000000     1.145000000    -1.768000000
H     5.505000000     0.465000000    -2.430000000
H     5.308000000     0.752000000    -0.957000000
O    -0.104000000    -1.126000000    -6.670000000
H     0.810000000    -1.001000000    -6.416000000
H    -0.101000000    -1.045000000    -7.624000000
O    -1.474000000    -4.544000000     3.031000000
H    -1.899000000    -3.979000000     2.385000000
H    -0.592000000    -4.184000000     3.119000000
O     4.488000000    -3.996000000    -1.793000000
H     5.221000000    -4.611000000    -1.837000000
H     4.549000000    -3.613000000    -0.918000000
O    -1.161000000    -4.847000000    -0.301000000
H    -1.423000000    -5.534000000     0.312000000
H    -0.329000000    -4.522000000     0.044000000
O    -6.521000000    -0.118000000     1.976000000
H    -6.208000000    -0.612000000     1.218000000
H    -6.497000000    -0.746000000     2.698000000
O     3.401000000    -0.446000000     3.169000000
H     3.973000000    -1.008000000     3.692000000
H     3.952000000    -0.153000000     2.443000000
O    -0.721000000     2.929000000     4.053000000
H     0.189000000     3.058000000     4.320000000
H    -0.799000000     1.985000000     3.915000000
O    -3.659000000    -2.489000000     2.795000000
H    -3.501000000    -1.547000000     2.852000000
H    -4.029000000    -2.617000000     1.921000000
O     2.920000000     3.159000000    -3.046000000
H     3.111000000     2.249000000    -3.273000000
H     3.508000000     3.673000000    -3.599000000
O    -6.694000000    -1.970000000     4.345000000
H    -6.639000000    -1.343000000     5.066000000
H    -6.390000000    -2.796000000     4.721000000
O    -2.435000000    -2.552000000    -6.218000000
H    -2.429000000    -3.508000000    -6.167000000
H    -1.516000000    -2.314000000    -6.345000000
O    -2.304000000     4.959000000     5.195000000
H    -1.515000000     5.343000000     5.576000000
H    -1.981000000     4.248000000     4.642000000
O     0.596000000    -5.525000000    -2.967000000
H    -0.290000000    -5.853000000    -3.121000000
H     0.476000000    -4.774000000    -2.385000000
O     1.143000000    -3.556000000     0.855000000
H     1.663000000    -2.799000000     0.587000000
H     1.089000000    -3.485000000     1.808000000
O     1.888000000     1.522000000     4.619000000
H     2.462000000     2.196000000     4.254000000
H     1.926000000     0.806000000     3.985000000
O     5.117000000    -1.481000000    -3.263000000
H     5.587000000    -1.714000000    -4.064000000
H     5.139000000    -2.278000000    -2.732000000
O    -4.566000000    -1.202000000     0.136000000
H    -3.867000000    -1.607000000    -0.378000000
H    -4.108000000    -0.646000000     0.767000000
O     3.126000000    -3.869000000    -4.124000000
H     3.660000000    -3.601000000    -3.376000000
H     2.383000000    -4.329000000    -3.735000000
O    -1.192000000     3.876000000     1.384000000
H    -0.850000000     3.491000000     2.191000000
H    -0.804000000     3.350000000     0.684000000
O     3.125000000     5.245000000    -0.522000000
H     2.520000000     5.968000000    -0.352000000
H     2.567000000     4.538000000    -0.846000000
O     0.975000000    -2.978000000     3.634000000
H     0.627000000    -2.181000000     4.034000000
H     1.812000000    -3.122000000     4.075000000
O    -2.518000000    -2.630000000    -0.846000000
H    -1.743000000    -2.121000000    -0.610000000
H    -2.225000000    -3.541000000    -0.813000000
O    -0.462000000    -2.036000000     7.762000000
H    -0.470000000    -1.572000000     6.925000000
H    -0.017000000    -1.437000000     8.363000000
O     1.002000000     3.445000000    -1.073000000
H     0.248000000     3.803000000    -1.540000000
H     1.493000000     2.967000000    -1.742000000
O    -3.208000000     3.456000000    -2.259000000
H    -3.374000000     3.223000000    -1.345000000
H    -3.938000000     3.068000000    -2.741000000
O    -0.633000000     3.517000000    -3.425000000
H    -0.437000000     2.711000000    -3.903000000
H    -1.542000000     3.412000000    -3.143000000
O    -3.256000000     1.224000000     5.160000000
H    -3.747000000     1.724000000     4.508000000
H    -2.602000000     0.745000000     4.652000000
O    -0.425000000     0.975000000    -4.850000000
H     0.432000000     0.831000000    -4.449000000
H    -0.505000000     0.278000000    -5.501000000
O    -4.989000000    -4.333000000     4.518000000
H    -4.825000000    -3.531000000     4.021000000
H    -4.185000000    -4.471000000     5.020000000
O    -4.933000000     1.911000000    -0.128000000
H    -5.101000000     2.828000000     0.088000000
H    -5.325000000     1.419000000     0.593000000
O    -4.639000000    -2.672000000    -2.686000000
H    -3.918000000    -3.037000000    -2.174000000
H    -5.409000000    -3.162000000    -2.398000000
O    -4.944000000     1.832000000     3.063000000
H    -4.304000000     1.136000000     2.916000000
H    -5.793000000     1.394000000     3.002000000
O    -5.132000000     2.604000000    -4.262000000
H    -6.065000000     2.684000000    -4.459000000
H    -5.077000000     1.860000000    -3.662000000
O    -1.473000000     2.338000000    -7.438000000
H    -1.142000000     2.085000000    -6.576000000
H    -2.265000000     2.843000000    -7.252000000
O     4.210000000    -4.524000000     2.612000000
H     4.849000000    -5.233000000     2.531000000
H     3.411000000    -4.955000000     2.914000000
O     0.117000000    -0.833000000     5.096000000
H    -0.573000000    -0.414000000     4.582000000
H     0.739000000    -0.130000000     5.281000000
O     5.248000000     0.266000000     1.056000000
H     5.396000000     1.148000000     1.399000000
H     5.939000000    -0.264000000     1.454000000
O    -5.452000000     0.104000000    -2.756000000
H    -5.253000000    -0.821000000    -2.612000000
H    -5.449000000     0.489000000    -1.880000000
O     2.533000000    -1.350000000    -5.716000000
H     3.214000000    -0.690000000    -5.586000000
H     2.914000000    -2.157000000    -5.369000000
O    -4.237000000    -0.728000000    -5.210000000
H    -4.224000000    -0.848000000    -4.260000000
H    -3.583000000    -1.345000000    -5.538000000
