161
-3039.69920
C    -0.122000000    -1.163000000     0.866000000
H    -0.185000000    -2.084000000     1.440000000
C    -0.275000000    -1.248000000    -0.505000000
H    -0.459000000    -2.163000000    -1.063000000
C    -0.100000000    -0.044000000    -1.182000000
C    -0.169000000     0.027000000    -2.695000000
H     0.759000000     0.507000000    -3.015000000
H    -0.372000000    -0.938000000    -3.165000000
H    -1.047000000     0.578000000    -3.039000000
C     0.077000000     1.183000000    -0.546000000
H     0.040000000     2.073000000    -1.169000000
C     0.126000000     1.262000000     0.842000000
H     0.250000000     2.185000000     1.403000000
C     0.144000000     0.054000000     1.561000000
C     0.397000000    -0.034000000     3.051000000
O     0.863000000     0.893000000     3.591000000
O     0.077000000    -1.089000000     3.632000000
O    -0.453000000    -0.775000000    -6.811000000
H     0.038000000    -0.273000000    -7.461000000
H    -0.992000000    -1.374000000    -7.329000000
O     3.305000000     2.379000000    -6.965000000
H     2.798000000     3.042000000    -7.434000000
H     3.016000000     2.454000000    -6.056000000
O    -3.189000000    -1.237000000    -2.281000000
H    -2.857000000    -1.104000000    -1.393000000
H    -4.058000000    -0.837000000    -2.275000000
O    -3.066000000     1.761000000     4.364000000
H    -2.517000000     1.184000000     4.896000000
H    -2.443000000     2.288000000     3.863000000
O    -3.461000000    -2.018000000     1.959000000
H    -3.318000000    -2.005000000     2.906000000
H    -3.228000000    -2.907000000     1.694000000
O     4.520000000     3.112000000     1.306000000
H     4.363000000     4.009000000     1.601000000
H     4.148000000     2.565000000     1.998000000
O     4.329000000    -3.514000000    -3.155000000
H     3.502000000    -3.032000000    -3.190000000
H     4.296000000    -4.100000000    -3.911000000
O     2.962000000     0.680000000     0.179000000
H     3.171000000     0.621000000     1.111000000
H     2.005000000     0.656000000     0.147000000
O     2.913000000    -1.943000000    -0.584000000
H     2.363000000    -2.265000000     0.130000000
H     3.049000000    -1.017000000    -0.383000000
O    -3.045000000     3.191000000    -4.899000000
H    -3.725000000     3.516000000    -4.308000000
H    -3.216000000     2.252000000    -4.967000000
O    -5.015000000     1.203000000    -1.148000000
H    -4.830000000     2.050000000    -1.553000000
H    -4.267000000     1.044000000    -0.572000000
O     1.895000000    -1.780000000    -5.596000000
H     1.104000000    -1.340000000    -5.909000000
H     1.695000000    -2.017000000    -4.691000000
O     2.362000000     2.947000000    -4.351000000
H     2.816000000     2.937000000    -3.509000000
H     1.452000000     3.147000000    -4.131000000
O    -2.010000000     5.179000000    -0.305000000
H    -1.118000000     5.000000000    -0.010000000
H    -2.568000000     4.750000000     0.344000000
O    -2.092000000    -3.601000000    -2.567000000
H    -2.509000000    -2.793000000    -2.270000000
H    -2.256000000    -3.624000000    -3.509000000
O     4.427000000    -2.395000000     5.193000000
H     4.896000000    -1.912000000     5.874000000
H     3.617000000    -1.901000000     5.064000000
O     3.872000000     2.527000000    -1.902000000
H     4.110000000     3.347000000    -1.471000000
H     3.593000000     1.953000000    -1.188000000
O    -0.420000000    -3.625000000     4.059000000
H    -1.365000000    -3.617000000     3.907000000
H    -0.113000000    -2.791000000     3.703000000
O    -0.217000000     3.439000000    -4.091000000
H    -1.060000000     3.061000000    -4.344000000
H    -0.446000000     4.237000000    -3.614000000
O    -3.744000000     3.218000000     1.316000000
H    -4.012000000     2.616000000     2.011000000
H    -4.514000000     3.290000000     0.752000000
O    -0.165000000    -6.382000000     3.181000000
H     0.209000000    -6.142000000     2.333000000
H    -0.333000000    -5.545000000     3.614000000
O    -1.411000000    -0.195000000     5.532000000
H    -1.706000000    -1.090000000     5.705000000
H    -0.757000000    -0.288000000     4.840000000
O     0.420000000    -5.111000000    -2.798000000
H     0.214000000    -5.413000000    -3.682000000
H    -0.388000000    -4.699000000    -2.491000000
O     3.397000000     1.455000000     2.896000000
H     4.065000000     1.121000000     3.494000000
H     2.567000000     1.247000000     3.324000000
O    -4.738000000     3.751000000    -2.452000000
H    -5.309000000     4.486000000    -2.676000000
H    -3.959000000     4.159000000    -2.075000000
O     0.753000000    -6.225000000     0.427000000
H     0.502000000    -6.319000000    -0.492000000
H     1.396000000    -6.918000000     0.572000000
O    -3.006000000    -0.004000000     0.132000000
H    -2.055000000     0.031000000     0.232000000
H    -3.294000000    -0.635000000     0.791000000
O    -2.152000000    -5.997000000    -0.835000000
H    -2.304000000    -5.398000000    -1.566000000
H    -2.786000000    -6.702000000    -0.967000000
O    -4.880000000    -3.414000000    -0.364000000
H    -4.228000000    -3.673000000     0.287000000
H    -5.096000000    -4.226000000    -0.822000000
O    -2.727000000    -4.579000000     1.646000000
H    -2.434000000    -5.154000000     0.938000000
H    -3.239000000    -5.148000000     2.220000000
O     4.787000000    -3.383000000     1.368000000
H     5.029000000    -2.476000000     1.180000000
H     3.840000000    -3.354000000     1.509000000
O     3.886000000     5.166000000    -1.113000000
H     3.140000000     5.425000000    -1.653000000
H     3.630000000     5.404000000    -0.222000000
O     2.238000000     1.548000000     5.969000000
H     1.662000000     1.572000000     5.204000000
H     2.546000000     0.643000000     6.008000000
O    -3.036000000    -3.112000000     5.000000000
H    -3.449000000    -3.974000000     4.949000000
H    -3.451000000    -2.691000000     5.752000000
O    -0.326000000     3.419000000     3.825000000
H     0.136000000     2.589000000     3.937000000
H     0.327000000     4.007000000     3.445000000
O     0.577000000     6.340000000     0.568000000
H     0.386000000     6.702000000    -0.297000000
H     0.239000000     6.993000000     1.181000000
O    -1.294000000     2.791000000     6.805000000
H    -0.887000000     3.343000000     6.137000000
H    -1.057000000     1.898000000     6.555000000
O    -2.702000000     5.155000000     3.369000000
H    -2.063000000     4.445000000     3.433000000
H    -2.947000000     5.340000000     4.276000000
O     2.141000000    -4.252000000     1.374000000
H     1.617000000    -4.945000000     0.971000000
H     2.119000000    -4.450000000     2.310000000
O    -5.396000000    -0.063000000    -5.839000000
H    -5.536000000    -0.270000000    -6.763000000
H    -4.564000000    -0.483000000    -5.622000000
O     1.913000000    -1.353000000     5.726000000
H     1.328000000    -1.265000000     4.973000000
H     1.327000000    -1.499000000     6.469000000
O     2.463000000    -4.222000000     4.281000000
H     1.639000000    -4.243000000     4.767000000
H     3.012000000    -3.606000000     4.767000000
O     0.590000000    -4.721000000     6.478000000
H     0.529000000    -3.840000000     6.849000000
H    -0.017000000    -4.712000000     5.738000000
O     0.470000000    -2.078000000     7.950000000
H    -0.369000000    -2.010000000     8.405000000
H     1.022000000    -1.415000000     8.365000000
O     1.669000000    -2.744000000    -2.897000000
H     1.119000000    -3.518000000    -2.774000000
H     1.905000000    -2.474000000    -2.009000000
O     1.850000000     5.104000000     2.885000000
H     1.351000000     5.181000000     2.071000000
H     2.721000000     5.432000000     2.664000000
O    -2.708000000    -0.276000000    -4.924000000
H    -1.939000000    -0.303000000    -5.493000000
H    -2.558000000    -0.973000000    -4.285000000
O    -2.269000000    -4.119000000    -5.519000000
H    -3.120000000    -4.556000000    -5.485000000
H    -1.642000000    -4.828000000    -5.670000000
