161
-3061.32893
C    -1.147000000    -0.547000000     0.701000000
H    -1.993000000    -1.041000000     1.172000000
C    -0.981000000    -0.499000000    -0.651000000
H    -1.614000000    -1.089000000    -1.309000000
C     0.100000000     0.212000000    -1.232000000
C     0.344000000     0.188000000    -2.748000000
H     1.040000000    -0.584000000    -3.081000000
H    -0.560000000     0.032000000    -3.340000000
H     0.804000000     1.164000000    -2.919000000
C     1.071000000     0.642000000    -0.357000000
H     1.927000000     1.110000000    -0.837000000
C     0.950000000     0.471000000     1.069000000
H     1.768000000     0.836000000     1.685000000
C    -0.169000000    -0.139000000     1.576000000
C    -0.435000000    -0.221000000     3.040000000
O     0.261000000     0.396000000     3.843000000
O    -1.364000000    -0.933000000     3.390000000
O     3.420000000     1.873000000    -5.805000000
H     3.780000000     2.353000000    -6.551000000
H     2.473000000     1.990000000    -5.878000000
O     1.610000000     3.799000000    -1.956000000
H     1.309000000     3.629000000    -2.848000000
H     2.352000000     3.205000000    -1.836000000
O    -4.535000000    -2.581000000     1.955000000
H    -4.362000000    -1.648000000     2.077000000
H    -4.471000000    -2.715000000     1.009000000
O     3.455000000    -1.026000000     2.931000000
H     3.833000000    -1.152000000     3.801000000
H     4.046000000    -0.410000000     2.499000000
O     0.307000000    -1.185000000     8.636000000
H     0.915000000    -0.818000000     7.994000000
H    -0.465000000    -0.620000000     8.584000000
O     4.069000000     3.094000000     0.997000000
H     4.210000000     3.378000000     1.900000000
H     3.143000000     3.272000000     0.832000000
O    -4.761000000     2.451000000     5.209000000
H    -4.128000000     2.484000000     4.492000000
H    -4.581000000     3.238000000     5.724000000
O     1.936000000     0.355000000     7.153000000
H     1.952000000    -0.272000000     6.430000000
H     2.810000000     0.297000000     7.540000000
O    -3.033000000    -0.644000000    -7.007000000
H    -3.779000000    -0.127000000    -6.705000000
H    -2.296000000    -0.034000000    -6.992000000
O     3.320000000    -1.935000000    -0.866000000
H     2.649000000    -2.549000000    -1.163000000
H     3.082000000    -1.738000000     0.040000000
O     4.206000000     2.407000000     5.174000000
H     4.935000000     1.825000000     4.962000000
H     3.579000000     2.277000000     4.462000000
O    -0.920000000    -4.994000000    -2.213000000
H    -1.813000000    -5.009000000    -2.558000000
H    -0.785000000    -5.872000000    -1.857000000
O    -4.469000000     1.041000000    -0.114000000
H    -5.058000000     1.778000000     0.048000000
H    -3.902000000     1.013000000     0.656000000
O    -4.847000000    -1.514000000    -3.445000000
H    -5.292000000    -2.005000000    -4.136000000
H    -4.151000000    -2.099000000    -3.145000000
O    -2.276000000     3.422000000     6.848000000
H    -1.749000000     4.202000000     6.675000000
H    -1.718000000     2.692000000     6.579000000
O     0.487000000    -1.463000000    -5.752000000
H     1.287000000    -1.418000000    -6.275000000
H     0.728000000    -1.996000000    -4.993000000
O    -2.764000000    -4.068000000    -0.038000000
H    -2.372000000    -4.173000000     0.829000000
H    -2.016000000    -4.013000000    -0.633000000
O    -2.630000000     2.998000000    -3.053000000
H    -3.061000000     3.695000000    -3.548000000
H    -3.309000000     2.335000000    -2.932000000
O     0.468000000     1.681000000    -5.544000000
H     0.310000000     0.828000000    -5.142000000
H    -0.109000000     1.698000000    -6.307000000
O     5.017000000    -2.996000000     1.365000000
H     4.522000000    -2.436000000     1.964000000
H     5.574000000    -2.390000000     0.876000000
O     0.894000000    -5.119000000     2.299000000
H     0.163000000    -4.598000000     2.633000000
H     1.345000000    -4.535000000     1.690000000
O     1.094000000     5.376000000     0.339000000
H     0.722000000     5.904000000    -0.367000000
H     1.096000000     4.483000000    -0.005000000
O    -1.624000000     3.191000000    -0.238000000
H    -1.707000000     3.231000000    -1.191000000
H    -1.106000000     2.402000000    -0.076000000
O    -6.886000000     0.215000000     2.131000000
H    -6.919000000     1.106000000     2.478000000
H    -5.989000000     0.116000000     1.811000000
O    -1.925000000    -2.841000000    -5.860000000
H    -2.245000000    -2.057000000    -6.306000000
H    -0.972000000    -2.773000000    -5.909000000
O    -5.315000000    -1.619000000    -0.740000000
H    -5.613000000    -1.428000000    -1.629000000
H    -5.102000000    -0.763000000    -0.369000000
O     5.748000000     3.598000000    -2.280000000
H     5.725000000     3.521000000    -1.326000000
H     5.030000000     3.041000000    -2.582000000
O    -3.909000000    -4.159000000    -2.679000000
H    -4.557000000    -4.864000000    -2.674000000
H    -3.816000000    -3.913000000    -1.758000000
O    -4.707000000     1.320000000    -2.914000000
H    -4.745000000     0.438000000    -3.285000000
H    -4.773000000     1.185000000    -1.968000000
O    -2.176000000     2.080000000     3.706000000
H    -1.767000000     1.871000000     4.546000000
H    -1.622000000     2.767000000     3.334000000
O     5.713000000     0.449000000     1.695000000
H     6.173000000    -0.117000000     1.075000000
H     5.448000000     1.207000000     1.175000000
O    -1.944000000    -0.461000000     5.916000000
H    -1.797000000    -0.741000000     5.012000000
H    -1.215000000     0.131000000     6.104000000
O    -4.391000000    -5.146000000     2.973000000
H    -4.505000000    -4.203000000     2.856000000
H    -4.494000000    -5.510000000     2.094000000
O    -5.961000000    -1.763000000     5.209000000
H    -6.794000000    -1.955000000     4.779000000
H    -5.298000000    -1.984000000     4.555000000
O     3.680000000     1.982000000    -2.869000000
H     3.864000000     1.045000000    -2.806000000
H     3.723000000     2.173000000    -3.806000000
O    -3.360000000    -2.719000000     6.649000000
H    -3.989000000    -2.443000000     7.316000000
H    -2.745000000    -1.988000000     6.581000000
O    -3.801000000    -0.001000000     2.526000000
H    -3.505000000     0.895000000     2.688000000
H    -3.043000000    -0.546000000     2.737000000
O    -1.222000000    -3.582000000     2.884000000
H    -1.828000000    -3.942000000     3.532000000
H    -1.260000000    -2.635000000     3.021000000
O    -0.456000000     4.050000000    -4.343000000
H    -0.182000000     3.267000000    -4.822000000
H    -1.313000000     3.822000000    -3.982000000
O     1.477000000    -1.535000000     5.222000000
H     0.945000000    -0.831000000     4.851000000
H     1.734000000    -2.064000000     4.467000000
O    -0.138000000     3.865000000     2.518000000
H    -0.415000000     4.709000000     2.876000000
H     0.176000000     4.070000000     1.637000000
O     1.446000000    -3.879000000     6.641000000
H     1.321000000    -3.052000000     6.175000000
H     0.712000000    -3.922000000     7.254000000
O    -0.332000000     1.787000000     6.105000000
H     0.420000000     1.770000000     6.697000000
H     0.010000000     1.457000000     5.274000000
O     0.960000000    -3.816000000    -3.927000000
H     1.024000000    -4.458000000    -4.634000000
H     0.134000000    -4.023000000    -3.490000000
O     0.822000000    -3.416000000    -0.286000000
H     0.378000000    -3.864000000    -1.005000000
H     0.591000000    -2.494000000    -0.399000000
O     2.016000000     2.505000000     3.775000000
H     1.350000000     3.176000000     3.623000000
H     1.528000000     1.682000000     3.786000000
O     3.510000000    -4.155000000    -3.865000000
H     3.955000000    -3.680000000    -3.163000000
H     2.578000000    -4.015000000    -3.697000000
O    -1.784000000     2.066000000    -6.877000000
H    -1.960000000     2.193000000    -7.809000000
H    -2.354000000     2.696000000    -6.437000000
