161
-3046.25445
C    -0.607000000    -0.951000000    -0.913000000
H    -0.978000000    -1.644000000    -1.663000000
C     0.226000000     0.046000000    -1.298000000
H     0.370000000     0.356000000    -2.329000000
C     0.885000000     0.763000000    -0.307000000
C     1.783000000     1.895000000    -0.676000000
H     1.360000000     2.885000000    -0.493000000
H     2.708000000     1.892000000    -0.095000000
H     2.115000000     1.758000000    -1.707000000
C     0.465000000     0.723000000     1.036000000
H     0.820000000     1.369000000     1.835000000
C    -0.464000000    -0.243000000     1.387000000
H    -0.765000000    -0.275000000     2.431000000
C    -1.015000000    -1.157000000     0.395000000
C    -1.987000000    -2.222000000     0.687000000
O    -2.096000000    -2.564000000     1.824000000
O    -2.823000000    -2.629000000    -0.108000000
O    -3.999000000     0.598000000     1.617000000
H    -4.561000000    -0.070000000     1.223000000
H    -3.782000000     0.249000000     2.482000000
O     1.764000000     6.540000000     0.027000000
H     1.539000000     7.465000000     0.127000000
H     1.570000000     6.344000000    -0.890000000
O    -7.172000000    -2.810000000     0.335000000
H    -7.724000000    -3.222000000     0.999000000
H    -6.578000000    -3.505000000     0.052000000
O    -2.568000000    -4.779000000     3.036000000
H    -3.393000000    -4.579000000     3.478000000
H    -2.340000000    -3.970000000     2.578000000
O    -1.234000000     6.138000000    -3.280000000
H    -1.207000000     6.918000000    -2.726000000
H    -1.634000000     5.466000000    -2.728000000
O    -1.729000000    -3.938000000    -3.740000000
H    -2.607000000    -4.224000000    -3.993000000
H    -1.645000000    -3.062000000    -4.118000000
O     4.205000000    -1.390000000    -2.028000000
H     4.834000000    -1.152000000    -1.347000000
H     4.156000000    -0.617000000    -2.590000000
O     0.083000000    -5.413000000     4.558000000
H     0.431000000    -6.001000000     3.889000000
H    -0.554000000    -5.944000000     5.037000000
O    -0.731000000     1.681000000     6.775000000
H    -0.685000000     2.184000000     5.962000000
H    -1.631000000     1.799000000     7.078000000
O     2.797000000     2.770000000    -4.839000000
H     2.595000000     2.694000000    -5.772000000
H     1.955000000     2.966000000    -4.427000000
O     1.604000000    -0.326000000    -4.717000000
H     1.834000000    -1.255000000    -4.705000000
H     2.394000000     0.120000000    -4.410000000
O     3.558000000     5.282000000     1.470000000
H     2.825000000     5.785000000     1.114000000
H     4.129000000     5.940000000     1.867000000
O     2.247000000    -3.062000000    -4.795000000
H     2.431000000    -3.610000000    -5.558000000
H     2.789000000    -3.431000000    -4.098000000
O    -5.146000000    -1.149000000    -0.590000000
H    -4.337000000    -1.629000000    -0.410000000
H    -5.840000000    -1.716000000    -0.255000000
O    -3.671000000    -2.768000000     5.010000000
H    -4.332000000    -2.752000000     4.318000000
H    -2.921000000    -2.307000000     4.634000000
O    -1.172000000     2.102000000     3.894000000
H    -1.548000000     2.740000000     3.288000000
H    -0.254000000     2.361000000     3.974000000
O    -2.332000000    -6.182000000     5.310000000
H    -2.860000000    -5.740000000     5.974000000
H    -2.450000000    -5.655000000     4.520000000
O     4.472000000     2.340000000     3.761000000
H     5.219000000     2.850000000     3.448000000
H     4.354000000     1.657000000     3.102000000
O    -5.400000000    -3.410000000     2.867000000
H    -5.792000000    -3.219000000     2.014000000
H    -6.110000000    -3.806000000     3.373000000
O    -4.905000000    -4.289000000    -0.162000000
H    -4.940000000    -4.558000000    -1.080000000
H    -4.094000000    -3.785000000    -0.091000000
O     4.962000000     0.586000000     1.528000000
H     5.457000000     0.076000000     0.887000000
H     4.127000000     0.125000000     1.608000000
O     4.488000000     4.950000000    -1.332000000
H     4.718000000     5.877000000    -1.266000000
H     4.218000000     4.706000000    -0.447000000
O    -1.577000000    -1.787000000    -5.655000000
H    -2.468000000    -1.455000000    -5.538000000
H    -1.093000000    -1.047000000    -6.021000000
O    -5.121000000    -6.542000000     1.704000000
H    -4.687000000    -6.707000000     0.867000000
H    -5.051000000    -5.595000000     1.827000000
O     4.159000000    -1.537000000     4.711000000
H     3.701000000    -2.293000000     4.344000000
H     3.509000000    -0.834000000     4.700000000
O     1.349000000    -5.159000000    -1.790000000
H     0.430000000    -5.128000000    -1.523000000
H     1.661000000    -4.261000000    -1.676000000
O     2.304000000     5.561000000    -2.599000000
H     3.098000000     5.137000000    -2.274000000
H     1.762000000     4.841000000    -2.919000000
O    -1.597000000    -6.584000000     1.097000000
H    -2.060000000    -6.133000000     1.803000000
H    -1.815000000    -6.084000000     0.310000000
O    -1.233000000    -4.714000000    -1.086000000
H    -1.455000000    -4.637000000    -2.014000000
H    -1.801000000    -4.078000000    -0.651000000
O    -0.531000000     0.776000000    -6.493000000
H    -0.035000000     0.498000000    -5.723000000
H    -0.546000000     1.731000000    -6.438000000
O    -4.310000000    -4.323000000    -4.166000000
H    -4.147000000    -4.995000000    -4.828000000
H    -5.176000000    -4.536000000    -3.818000000
O     5.740000000     2.275000000    -2.467000000
H     5.338000000     2.965000000    -1.940000000
H     6.663000000     2.287000000    -2.214000000
O     1.221000000     3.212000000     4.552000000
H     2.173000000     3.303000000     4.580000000
H     0.896000000     3.928000000     5.099000000
O    -2.267000000     3.479000000     1.943000000
H    -2.135000000     4.371000000     1.623000000
H    -2.639000000     3.009000000     1.197000000
O     2.876000000    -1.233000000     1.799000000
H     2.818000000    -1.577000000     0.908000000
H     1.975000000    -1.251000000     2.122000000
O    -4.398000000    -1.594000000    -4.526000000
H    -4.743000000    -1.181000000    -3.734000000
H    -4.523000000    -2.532000000    -4.380000000
O    -0.965000000     5.529000000     0.600000000
H    -0.114000000     5.859000000     0.886000000
H    -0.830000000     5.276000000    -0.313000000
O     4.403000000     0.423000000    -3.937000000
H     4.957000000     1.093000000    -3.537000000
H     4.464000000     0.592000000    -4.878000000
O    -1.890000000     4.101000000    -1.643000000
H    -2.753000000     4.021000000    -2.050000000
H    -1.876000000     3.417000000    -0.974000000
O    -0.814000000    -2.885000000     4.229000000
H    -1.423000000    -2.766000000     3.501000000
H    -0.585000000    -3.814000000     4.200000000
O     7.231000000     2.436000000     0.504000000
H     6.359000000     2.050000000     0.582000000
H     7.699000000     2.130000000     1.280000000
O     2.173000000    -2.439000000    -0.814000000
H     1.601000000    -1.706000000    -1.044000000
H     2.972000000    -2.287000000    -1.320000000
O    -6.831000000     1.255000000    -1.078000000
H    -7.653000000     0.788000000    -1.227000000
H    -6.181000000     0.563000000    -0.955000000
O     0.723000000    -1.265000000     5.834000000
H     0.177000000    -0.480000000     5.865000000
H     0.192000000    -1.909000000     5.366000000
O    -2.958000000    -0.020000000     4.243000000
H    -2.336000000     0.689000000     4.078000000
H    -2.731000000    -0.339000000     5.116000000
O     0.713000000    -4.246000000     1.214000000
H    -0.059000000    -4.641000000     0.808000000
H     0.947000000    -3.524000000     0.630000000
O    -2.430000000     1.642000000    -0.270000000
H    -2.984000000     1.058000000     0.248000000
H    -1.598000000     1.175000000    -0.349000000
O     0.515000000     3.386000000    -3.239000000
H     0.436000000     2.463000000    -2.999000000
H     0.163000000     3.860000000    -2.485000000
