161
-3044.59223
C    -0.257000000    -1.091000000    -0.968000000
H    -0.322000000    -1.899000000    -1.692000000
C     0.791000000    -0.153000000    -1.093000000
H     1.512000000    -0.244000000    -1.901000000
C     0.954000000     0.845000000    -0.106000000
C     2.042000000     1.794000000    -0.263000000
H     2.168000000     2.179000000     0.751000000
H     2.844000000     1.146000000    -0.622000000
H     1.766000000     2.563000000    -0.988000000
C    -0.014000000     0.968000000     0.938000000
H     0.063000000     1.757000000     1.682000000
C    -1.040000000     0.022000000     1.021000000
H    -1.774000000     0.139000000     1.814000000
C    -1.149000000    -1.033000000     0.127000000
C    -2.210000000    -2.073000000     0.433000000
O    -3.131000000    -1.896000000     1.186000000
O    -2.246000000    -3.030000000    -0.317000000
O     3.136000000     5.027000000     3.710000000
H     3.683000000     4.840000000     4.473000000
H     3.687000000     4.802000000     2.960000000
O     6.777000000     1.008000000    -2.316000000
H     7.191000000     1.398000000    -3.086000000
H     7.504000000     0.823000000    -1.721000000
O    -3.410000000    -1.228000000    -5.067000000
H    -3.663000000    -1.620000000    -4.231000000
H    -2.496000000    -1.488000000    -5.187000000
O    -5.763000000    -2.776000000     0.980000000
H    -6.032000000    -2.483000000     1.851000000
H    -5.006000000    -2.230000000     0.767000000
O    -0.518000000     2.598000000    -2.531000000
H    -0.083000000     1.879000000    -2.071000000
H    -1.314000000     2.205000000    -2.890000000
O    -1.473000000    -6.966000000     0.836000000
H    -0.673000000    -6.665000000     0.405000000
H    -2.168000000    -6.433000000     0.449000000
O    -7.167000000    -5.173000000     0.199000000
H    -8.054000000    -4.813000000     0.187000000
H    -6.643000000    -4.506000000     0.642000000
O    -4.426000000    -1.160000000    -2.701000000
H    -4.272000000    -1.956000000    -2.192000000
H    -5.371000000    -1.018000000    -2.642000000
O     1.801000000     5.813000000    -0.775000000
H     1.513000000     6.712000000    -0.615000000
H     1.512000000     5.328000000    -0.002000000
O     2.055000000    -3.127000000    -2.748000000
H     2.371000000    -2.381000000    -3.259000000
H     2.742000000    -3.281000000    -2.100000000
O     1.827000000    -4.314000000     2.464000000
H     1.319000000    -3.503000000     2.475000000
H     1.450000000    -4.823000000     1.747000000
O    -1.988000000    -5.699000000     3.307000000
H    -1.833000000    -6.388000000     2.660000000
H    -1.261000000    -5.781000000     3.923000000
O     4.157000000    -2.490000000    -0.641000000
H     4.993000000    -2.726000000    -1.043000000
H     4.260000000    -1.570000000    -0.398000000
O    -0.844000000    -2.714000000    -5.516000000
H    -0.389000000    -3.079000000    -6.274000000
H    -0.149000000    -2.333000000    -4.979000000
O    -2.009000000     5.493000000     2.838000000
H    -2.270000000     6.035000000     3.582000000
H    -2.010000000     4.599000000     3.181000000
O    -2.366000000     4.777000000    -1.513000000
H    -2.689000000     4.504000000    -0.654000000
H    -1.888000000     4.016000000    -1.842000000
O    -1.473000000     2.873000000     3.372000000
H    -1.137000000     3.058000000     4.249000000
H    -1.761000000     1.961000000     3.413000000
O    -6.803000000    -1.725000000     3.283000000
H    -7.124000000    -0.878000000     2.972000000
H    -6.292000000    -1.514000000     4.064000000
O    -0.772000000    -2.503000000     4.775000000
H    -1.641000000    -2.677000000     4.413000000
H    -0.248000000    -2.234000000     4.020000000
O    -2.245000000    -4.525000000    -3.675000000
H    -1.483000000    -4.099000000    -3.281000000
H    -2.087000000    -4.474000000    -4.617000000
O     0.309000000     4.745000000     1.241000000
H     0.562000000     3.949000000     1.708000000
H    -0.592000000     4.909000000     1.517000000
O    -3.390000000    -2.645000000     3.841000000
H    -3.770000000    -1.890000000     4.290000000
H    -3.374000000    -2.391000000     2.918000000
O     3.613000000     1.955000000     3.108000000
H     3.990000000     2.430000000     3.848000000
H     3.683000000     2.564000000     2.372000000
O     1.337000000     4.480000000    -2.954000000
H     0.577000000     3.970000000    -2.672000000
H     1.548000000     5.031000000    -2.200000000
O    -6.886000000    -2.876000000    -1.673000000
H    -6.669000000    -3.056000000    -0.759000000
H    -6.152000000    -3.237000000    -2.170000000
O    -5.036000000    -4.666000000     4.276000000
H    -4.368000000    -4.005000000     4.096000000
H    -4.557000000    -5.495000000     4.289000000
O     0.232000000    -4.755000000    -0.130000000
H    -0.541000000    -4.209000000     0.017000000
H     0.660000000    -4.365000000    -0.891000000
O     0.933000000     5.937000000    -5.408000000
H     1.137000000     5.466000000    -4.600000000
H     0.508000000     6.743000000    -5.114000000
O    -4.252000000    -3.768000000    -1.803000000
H    -4.023000000    -4.176000000    -2.638000000
H    -3.438000000    -3.777000000    -1.301000000
O    -3.517000000    -5.135000000     1.074000000
H    -3.949000000    -4.358000000     0.720000000
H    -3.080000000    -4.826000000     1.867000000
O    -5.397000000     2.126000000     3.825000000
H    -5.437000000     1.830000000     2.916000000
H    -5.697000000     3.034000000     3.796000000
O    -4.725000000    -7.492000000     1.723000000
H    -4.419000000    -6.622000000     1.469000000
H    -5.594000000    -7.341000000     2.095000000
O     3.349000000     2.698000000    -3.470000000
H     2.749000000     3.431000000    -3.331000000
H     3.876000000     2.960000000    -4.226000000
O     4.265000000    -0.027000000    -3.586000000
H     3.729000000     0.760000000    -3.494000000
H     5.059000000     0.164000000    -3.087000000
O     4.760000000     5.294000000    -2.587000000
H     5.087000000     4.679000000    -3.244000000
H     4.193000000     4.765000000    -2.026000000
O    -3.738000000     3.482000000     1.227000000
H    -3.119000000     3.123000000     1.863000000
H    -4.088000000     2.714000000     0.774000000
O     5.568000000     2.321000000     0.271000000
H     5.043000000     1.543000000     0.461000000
H     5.677000000     2.309000000    -0.680000000
O     0.725000000    -1.702000000     2.590000000
H     0.273000000    -1.118000000     1.981000000
H     1.568000000    -1.277000000     2.749000000
O    -2.718000000     1.208000000    -3.132000000
H    -3.343000000     1.828000000    -2.758000000
H    -3.071000000     0.347000000    -2.907000000
O     1.812000000    -1.633000000    -5.148000000
H     2.588000000    -1.094000000    -4.996000000
H     1.979000000    -2.064000000    -5.986000000
O    -2.071000000    -7.170000000    -2.821000000
H    -2.054000000    -6.295000000    -3.209000000
H    -1.149000000    -7.393000000    -2.693000000
O     4.817000000     4.362000000     1.900000000
H     5.314000000     3.825000000     1.283000000
H     5.402000000     5.090000000     2.109000000
O     4.684000000    -0.394000000     0.782000000
H     4.236000000    -0.457000000     1.625000000
H     5.514000000    -0.851000000     0.917000000
O     1.647000000    -5.652000000    -3.709000000
H     2.284000000    -5.591000000    -4.420000000
H     1.776000000    -4.850000000    -3.202000000
O     3.102000000    -0.863000000     3.380000000
H     3.097000000     0.089000000     3.284000000
H     3.818000000    -1.038000000     3.991000000
O    -0.891000000    -0.552000000     6.721000000
H    -1.427000000    -1.006000000     7.371000000
H    -1.020000000    -1.049000000     5.914000000
O    -4.622000000    -0.683000000     5.048000000
H    -4.914000000     0.150000000     4.679000000
H    -4.642000000    -0.545000000     5.995000000
O    -4.889000000     0.425000000     1.212000000
H    -4.225000000    -0.220000000     0.968000000
H    -5.604000000     0.278000000     0.593000000
