161
-3020.23584
C    -0.936000000    -0.320000000     1.152000000
H    -1.507000000    -0.466000000     2.065000000
C     0.404000000     0.121000000     1.217000000
H     0.768000000     0.334000000     2.219000000
C     1.178000000     0.373000000     0.022000000
C     2.517000000     1.062000000     0.252000000
H     2.838000000     1.693000000    -0.580000000
H     2.466000000     1.704000000     1.134000000
H     3.327000000     0.347000000     0.410000000
C     0.643000000     0.099000000    -1.215000000
H     1.225000000     0.346000000    -2.099000000
C    -0.645000000    -0.403000000    -1.227000000
H    -1.041000000    -0.628000000    -2.214000000
C    -1.461000000    -0.615000000    -0.095000000
C    -2.870000000    -1.116000000    -0.310000000
O    -3.218000000    -1.596000000    -1.388000000
O    -3.684000000    -0.931000000     0.655000000
O     6.262000000    -0.991000000     0.688000000
H     5.866000000    -1.252000000    -0.143000000
H     7.078000000    -0.558000000     0.439000000
O    -6.198000000     0.925000000    -1.011000000
H    -6.149000000     1.104000000    -1.950000000
H    -6.013000000    -0.011000000    -0.936000000
O    -1.918000000     2.266000000     2.958000000
H    -1.468000000     2.201000000     2.116000000
H    -2.788000000     2.601000000     2.739000000
O     5.668000000    -4.198000000     1.354000000
H     5.156000000    -4.751000000     0.764000000
H     5.518000000    -3.307000000     1.038000000
O     0.536000000    -1.751000000     4.681000000
H     1.244000000    -2.315000000     4.370000000
H    -0.225000000    -2.014000000     4.163000000
O    -0.636000000     2.987000000     0.219000000
H    -0.433000000     2.215000000    -0.310000000
H    -1.360000000     3.409000000    -0.243000000
O     2.482000000     1.684000000    -6.839000000
H     2.880000000     1.595000000    -5.973000000
H     1.690000000     1.147000000    -6.795000000
O    -6.984000000     1.008000000     2.625000000
H    -7.626000000     0.300000000     2.571000000
H    -7.510000000     1.807000000     2.649000000
O    -2.343000000    -1.985000000     6.116000000
H    -2.667000000    -2.424000000     5.330000000
H    -1.409000000    -1.854000000     5.951000000
O     2.170000000     0.365000000     5.873000000
H     1.369000000    -0.104000000     5.639000000
H     1.863000000     1.175000000     6.281000000
O    -1.553000000     3.194000000    -3.171000000
H    -1.546000000     3.852000000    -3.866000000
H    -0.742000000     2.701000000    -3.300000000
O    -0.525000000    -4.647000000    -1.503000000
H    -0.773000000    -4.174000000    -0.708000000
H     0.425000000    -4.546000000    -1.555000000
O     0.570000000     1.891000000    -3.958000000
H     0.206000000     1.537000000    -4.769000000
H     1.278000000     1.289000000    -3.730000000
O     3.721000000    -2.897000000    -0.443000000
H     3.259000000    -3.309000000     0.287000000
H     3.073000000    -2.864000000    -1.148000000
O     0.946000000    -2.314000000    -4.055000000
H     0.939000000    -1.375000000    -4.241000000
H     0.058000000    -2.606000000    -4.261000000
O     0.177000000    -0.328000000    -6.129000000
H    -0.294000000    -0.066000000    -6.920000000
H     0.794000000    -0.997000000    -6.428000000
O     7.441000000    -1.150000000     3.219000000
H     8.277000000    -1.557000000     2.993000000
H     6.908000000    -1.242000000     2.429000000
O    -3.678000000    -4.856000000    -0.673000000
H    -3.667000000    -4.661000000    -1.610000000
H    -4.577000000    -4.673000000    -0.401000000
O     6.347000000     3.120000000    -0.794000000
H     6.341000000     3.811000000    -1.456000000
H     6.314000000     3.588000000     0.041000000
O     6.100000000     2.583000000     2.094000000
H     7.003000000     2.895000000     2.042000000
H     6.156000000     1.772000000     2.599000000
O     6.526000000    -1.947000000    -2.898000000
H     6.618000000    -1.063000000    -2.544000000
H     5.603000000    -2.013000000    -3.142000000
O     2.916000000    -3.489000000     3.651000000
H     2.737000000    -3.572000000     2.715000000
H     3.767000000    -3.053000000     3.695000000
O    -1.967000000    -4.682000000     1.376000000
H    -2.389000000    -4.040000000     1.947000000
H    -2.561000000    -4.764000000     0.629000000
O    -8.398000000    -0.376000000     0.332000000
H    -7.447000000    -0.476000000     0.360000000
H    -8.720000000    -1.229000000     0.037000000
O     3.611000000    -2.216000000    -4.576000000
H     2.714000000    -2.240000000    -4.907000000
H     4.020000000    -3.005000000    -4.931000000
O    -4.477000000     0.284000000     3.431000000
H    -4.002000000    -0.033000000     2.662000000
H    -5.339000000     0.530000000     3.095000000
O     0.460000000     4.296000000     4.065000000
H    -0.085000000     3.564000000     3.774000000
H     0.902000000     4.595000000     3.271000000
O    -4.367000000     1.899000000     0.606000000
H    -5.012000000     1.508000000     0.017000000
H    -3.719000000     1.208000000     0.744000000
O     4.265000000    -0.745000000     3.010000000
H     4.846000000    -0.368000000     2.349000000
H     3.835000000     0.011000000     3.409000000
O    -7.561000000    -3.345000000    -2.208000000
H    -7.558000000    -4.253000000    -1.907000000
H    -8.049000000    -2.870000000    -1.536000000
O    -5.008000000    -3.487000000    -2.862000000
H    -5.924000000    -3.417000000    -2.595000000
H    -4.549000000    -2.853000000    -2.311000000
O    -6.079000000    -4.391000000     0.641000000
H    -5.688000000    -4.341000000     1.513000000
H    -6.393000000    -5.292000000     0.571000000
O     2.026000000    -3.855000000    -2.186000000
H     2.846000000    -4.181000000    -2.557000000
H     1.690000000    -3.248000000    -2.846000000
O     4.236000000     4.793000000     2.300000000
H     5.077000000     4.385000000     2.095000000
H     3.589000000     4.245000000     1.856000000
O    -6.022000000    -1.719000000    -0.054000000
H    -6.116000000    -2.643000000     0.175000000
H    -5.129000000    -1.497000000     0.210000000
O     3.080000000     0.637000000    -3.962000000
H     3.260000000    -0.269000000    -4.211000000
H     3.753000000     0.846000000    -3.314000000
O    -4.995000000     3.899000000     2.075000000
H    -4.934000000     3.034000000     1.668000000
H    -5.091000000     4.503000000     1.339000000
O     1.311000000     4.663000000     1.645000000
H     0.775000000     4.011000000     1.194000000
H     0.840000000     5.488000000     1.521000000
O    -1.985000000     0.946000000     5.246000000
H    -2.217000000     0.018000000     5.200000000
H    -2.230000000     1.297000000     4.389000000
O    -5.013000000     0.011000000    -3.755000000
H    -4.588000000    -0.086000000    -4.607000000
H    -4.296000000    -0.034000000    -3.123000000
O     2.132000000     4.427000000    -3.867000000
H     1.790000000     3.609000000    -3.506000000
H     1.587000000     4.595000000    -4.636000000
O     5.654000000     0.940000000    -2.443000000
H     5.732000000     1.563000000    -1.721000000
H     6.438000000     1.087000000    -2.972000000
O    -5.256000000    -2.617000000     4.668000000
H    -5.824000000    -3.332000000     4.957000000
H    -5.330000000    -1.958000000     5.358000000
O     4.280000000     3.053000000     4.983000000
H     4.952000000     2.425000000     5.249000000
H     4.211000000     2.942000000     4.035000000
O    -1.984000000    -3.353000000    -4.043000000
H    -2.474000000    -2.574000000    -3.779000000
H    -1.641000000    -3.709000000    -3.224000000
O    -5.304000000    -5.627000000    -4.547000000
H    -5.103000000    -4.970000000    -3.881000000
H    -4.663000000    -6.322000000    -4.398000000
O     1.686000000     6.215000000    -1.599000000
H     2.576000000     6.553000000    -1.492000000
H     1.776000000     5.501000000    -2.230000000
O    -3.120000000    -2.719000000     2.692000000
H    -3.970000000    -2.808000000     3.124000000
H    -3.306000000    -2.211000000     1.902000000
