161
-3048.05483
C    -0.246000000     1.001000000    -1.073000000
H    -0.397000000     1.784000000    -1.812000000
C    -0.079000000     1.217000000     0.281000000
H    -0.108000000     2.272000000     0.541000000
C     0.094000000     0.245000000     1.243000000
C     0.384000000     0.700000000     2.707000000
H     0.157000000    -0.011000000     3.505000000
H     1.466000000     0.824000000     2.636000000
H    -0.280000000     1.557000000     2.833000000
C     0.145000000    -1.103000000     0.815000000
H     0.292000000    -1.947000000     1.484000000
C     0.025000000    -1.328000000    -0.619000000
H     0.132000000    -2.334000000    -1.018000000
C    -0.235000000    -0.362000000    -1.526000000
C    -0.471000000    -0.774000000    -2.976000000
O    -0.146000000    -1.845000000    -3.308000000
O    -0.732000000     0.101000000    -3.719000000
O    -0.167000000    -2.884000000    -5.707000000
H     0.712000000    -2.515000000    -5.792000000
H    -0.499000000    -2.524000000    -4.884000000
O    -2.354000000     0.961000000     6.604000000
H    -2.453000000     0.170000000     7.134000000
H    -2.928000000     1.602000000     7.024000000
O     3.808000000     3.813000000    -1.274000000
H     3.665000000     2.870000000    -1.359000000
H     3.655000000     4.158000000    -2.153000000
O    -3.043000000    -2.840000000    -3.138000000
H    -2.106000000    -2.721000000    -3.293000000
H    -3.183000000    -2.509000000    -2.250000000
O    -3.135000000     3.032000000    -0.117000000
H    -2.669000000     2.226000000     0.105000000
H    -2.525000000     3.516000000    -0.673000000
O     0.307000000    -2.640000000     5.415000000
H     0.754000000    -2.087000000     6.056000000
H    -0.379000000    -2.080000000     5.052000000
O     1.354000000     1.925000000    -4.026000000
H     0.929000000     2.618000000    -4.533000000
H     0.655000000     1.297000000    -3.846000000
O    -2.571000000     2.098000000    -3.290000000
H    -2.543000000     2.485000000    -4.165000000
H    -1.978000000     1.348000000    -3.340000000
O    -0.338000000    -4.703000000    -2.741000000
H    -0.250000000    -3.786000000    -3.001000000
H    -0.990000000    -5.061000000    -3.344000000
O    -2.997000000    -0.102000000    -5.750000000
H    -2.389000000    -0.075000000    -5.011000000
H    -3.101000000     0.814000000    -6.009000000
O    -4.748000000     0.869000000    -2.183000000
H    -3.929000000     1.067000000    -2.638000000
H    -5.350000000     0.605000000    -2.878000000
O    -2.427000000     2.890000000    -5.896000000
H    -2.964000000     3.640000000    -6.155000000
H    -1.527000000     3.176000000    -6.049000000
O    -1.067000000     6.054000000    -3.638000000
H    -0.609000000     6.298000000    -2.834000000
H    -1.904000000     5.699000000    -3.339000000
O    -0.782000000     6.850000000     0.917000000
H    -1.001000000     6.417000000     1.742000000
H    -0.700000000     7.776000000     1.147000000
O    -2.936000000     0.607000000     1.584000000
H    -2.257000000    -0.039000000     1.780000000
H    -2.893000000     1.228000000     2.311000000
O     0.156000000     1.618000000     6.551000000
H    -0.754000000     1.337000000     6.643000000
H     0.144000000     2.231000000     5.815000000
O     5.416000000     1.032000000     3.642000000
H     5.988000000     1.367000000     4.332000000
H     5.230000000     0.130000000     3.902000000
O     1.558000000     4.164000000     0.586000000
H     2.137000000     3.951000000    -0.145000000
H     2.089000000     4.005000000     1.367000000
O    -3.084000000    -1.944000000    -0.570000000
H    -2.405000000    -1.987000000     0.103000000
H    -3.783000000    -1.426000000    -0.172000000
O     3.017000000     1.265000000    -1.829000000
H     2.575000000     0.775000000    -1.136000000
H     2.479000000     1.118000000    -2.607000000
O    -1.957000000    -1.548000000     4.495000000
H    -2.532000000    -0.827000000     4.750000000
H    -2.483000000    -2.072000000     3.891000000
O    -2.928000000     2.227000000     3.870000000
H    -2.751000000     1.983000000     4.778000000
H    -3.875000000     2.366000000     3.840000000
O     3.541000000     2.372000000    -5.453000000
H     3.836000000     1.567000000    -5.879000000
H     2.782000000     2.104000000    -4.935000000
O     0.312000000     4.231000000    -5.379000000
H     0.342000000     4.779000000    -6.163000000
H     0.127000000     4.843000000    -4.667000000
O     1.165000000    -4.676000000     1.663000000
H     0.258000000    -4.981000000     1.704000000
H     1.440000000    -4.863000000     0.766000000
O     4.657000000    -1.705000000     4.561000000
H     3.982000000    -2.318000000     4.268000000
H     5.426000000    -2.252000000     4.717000000
O     4.745000000    -3.901000000    -2.430000000
H     5.448000000    -3.312000000    -2.706000000
H     4.004000000    -3.667000000    -2.989000000
O     4.443000000    -1.494000000     0.937000000
H     3.847000000    -1.513000000     1.686000000
H     5.162000000    -2.074000000     1.189000000
O    -4.963000000    -1.656000000    -4.455000000
H    -4.493000000    -2.295000000    -3.920000000
H    -4.353000000    -1.440000000    -5.161000000
O     2.435000000    -2.593000000    -3.564000000
H     2.478000000    -2.391000000    -4.498000000
H     1.559000000    -2.312000000    -3.297000000
O    -2.403000000    -3.938000000     2.408000000
H    -3.278000000    -3.574000000     2.545000000
H    -2.083000000    -4.130000000     3.290000000
O     2.975000000     6.508000000     1.262000000
H     2.269000000     6.131000000     0.736000000
H     2.527000000     7.063000000     1.900000000
O    -0.218000000     2.593000000    -8.144000000
H    -0.219000000     2.487000000    -9.095000000
H     0.154000000     1.775000000    -7.813000000
O     1.743000000    -5.037000000    -0.924000000
H     1.217000000    -5.234000000    -1.699000000
H     2.474000000    -4.515000000    -1.257000000
O     1.264000000    -0.677000000     7.252000000
H     0.908000000     0.173000000     6.993000000
H     2.212000000    -0.545000000     7.267000000
O    -1.501000000    -5.952000000     1.071000000
H    -1.742000000    -5.086000000     1.401000000
H    -1.856000000    -5.977000000     0.183000000
O    -1.812000000    -1.061000000    -8.281000000
H    -2.279000000    -0.715000000    -7.521000000
H    -2.475000000    -1.110000000    -8.969000000
O    -0.949000000     4.674000000    -0.968000000
H    -0.848000000     5.482000000    -0.466000000
H    -0.296000000     4.079000000    -0.600000000
O     2.594000000    -2.161000000    -6.204000000
H     2.383000000    -1.489000000    -6.852000000
H     3.475000000    -2.451000000    -6.439000000
O    -0.302000000     3.809000000     4.277000000
H    -0.541000000     3.224000000     3.559000000
H    -1.074000000     4.360000000     4.405000000
O     2.399000000     4.104000000     5.340000000
H     1.546000000     3.822000000     5.009000000
H     3.020000000     3.831000000     4.666000000
O     0.437000000     0.056000000    -6.675000000
H    -0.204000000    -0.627000000    -6.874000000
H     0.492000000     0.062000000    -5.720000000
O    -2.621000000    -5.091000000    -1.105000000
H    -1.861000000    -5.089000000    -1.688000000
H    -2.874000000    -4.171000000    -1.038000000
O    -1.590000000    -5.570000000    -4.982000000
H    -0.782000000    -6.066000000    -5.116000000
H    -1.472000000    -4.775000000    -5.502000000
O     3.577000000     2.979000000     2.554000000
H     3.966000000     2.143000000     2.810000000
H     4.325000000     3.538000000     2.344000000
O    -3.657000000     5.559000000    -1.693000000
H    -3.985000000     6.117000000    -0.987000000
H    -3.300000000     4.792000000    -1.246000000
O     2.270000000    -5.474000000    -3.995000000
H     2.029000000    -4.572000000    -3.783000000
H     1.657000000    -5.730000000    -4.684000000
O     2.540000000    -3.263000000     3.616000000
H     1.703000000    -3.169000000     4.072000000
H     2.310000000    -3.656000000     2.774000000
