161
-3066.67879
C    -0.185000000     0.278000000    -1.393000000
H    -0.438000000     0.634000000    -2.388000000
C     0.286000000     1.161000000    -0.448000000
H     0.566000000     2.148000000    -0.807000000
C     0.387000000     0.806000000     0.892000000
C     1.004000000     1.857000000     1.819000000
H     0.555000000     1.812000000     2.814000000
H     2.088000000     1.773000000     1.915000000
H     0.692000000     2.827000000     1.426000000
C     0.043000000    -0.549000000     1.255000000
H     0.094000000    -0.846000000     2.299000000
C    -0.418000000    -1.417000000     0.291000000
H    -0.609000000    -2.464000000     0.514000000
C    -0.526000000    -1.059000000    -1.046000000
C    -1.088000000    -2.029000000    -2.097000000
O    -1.607000000    -3.114000000    -1.766000000
O    -0.843000000    -1.819000000    -3.276000000
O    -3.244000000    -3.069000000     2.769000000
H    -2.963000000    -3.285000000     1.879000000
H    -2.822000000    -2.231000000     2.957000000
O    -3.691000000    -6.096000000     1.340000000
H    -4.283000000    -6.532000000     0.728000000
H    -3.377000000    -5.327000000     0.864000000
O     4.069000000    -0.518000000     1.766000000
H     4.606000000    -1.306000000     1.679000000
H     3.255000000    -0.826000000     2.164000000
O    -4.178000000     2.467000000    -5.575000000
H    -4.334000000     2.442000000    -4.631000000
H    -3.293000000     2.120000000    -5.681000000
O    -0.031000000     4.070000000     4.318000000
H    -0.679000000     3.366000000     4.343000000
H    -0.055000000     4.449000000     5.197000000
O    -0.596000000    -5.465000000     2.716000000
H    -0.028000000    -5.346000000     1.955000000
H    -1.422000000    -5.051000000     2.465000000
O     5.402000000     0.974000000     4.499000000
H     5.575000000     1.292000000     3.613000000
H     4.449000000     1.009000000     4.584000000
O     0.879000000    -0.384000000    -4.678000000
H     0.156000000    -0.553000000    -4.073000000
H     0.636000000    -0.849000000    -5.478000000
O     2.346000000    -4.403000000    -6.693000000
H     1.956000000    -4.021000000    -5.907000000
H     3.290000000    -4.340000000    -6.548000000
O     3.608000000     4.293000000     4.966000000
H     4.414000000     4.629000000     5.357000000
H     3.786000000     4.279000000     4.026000000
O     2.434000000     0.159000000     7.615000000
H     1.832000000     0.494000000     8.279000000
H     2.564000000     0.894000000     7.016000000
O    -2.445000000     5.146000000    -2.669000000
H    -1.968000000     5.074000000    -1.842000000
H    -1.854000000     4.766000000    -3.319000000
O     1.248000000    -2.568000000     4.218000000
H     2.044000000    -3.042000000     4.460000000
H     0.731000000    -3.205000000     3.724000000
O    -3.249000000    -1.158000000    -6.948000000
H    -3.606000000    -0.508000000    -7.554000000
H    -3.694000000    -0.982000000    -6.119000000
O     4.033000000     1.630000000     0.030000000
H     3.829000000     0.894000000     0.606000000
H     3.203000000     2.098000000    -0.065000000
O    -1.648000000     5.662000000     2.359000000
H    -0.916000000     5.303000000     2.861000000
H    -2.335000000     5.809000000     3.009000000
O    -3.881000000     1.145000000    -2.413000000
H    -4.284000000     2.013000000    -2.406000000
H    -3.492000000     1.054000000    -1.543000000
O    -3.227000000    -3.826000000     0.136000000
H    -2.715000000    -3.566000000    -0.630000000
H    -4.078000000    -3.408000000     0.009000000
O    -3.830000000     3.454000000     1.446000000
H    -3.000000000     3.882000000     1.654000000
H    -3.633000000     2.905000000     0.686000000
O     3.358000000    -0.797000000    -3.537000000
H     2.693000000    -0.875000000    -4.222000000
H     4.186000000    -0.964000000    -3.987000000
O     6.209000000     1.899000000     1.581000000
H     6.920000000     1.363000000     1.230000000
H     5.469000000     1.727000000     0.999000000
O     2.727000000     1.769000000     4.625000000
H     1.893000000     2.095000000     4.287000000
H     3.186000000     2.552000000     4.928000000
O    -1.120000000    -2.899000000    -7.267000000
H    -1.434000000    -3.640000000    -6.750000000
H    -1.859000000    -2.291000000    -7.288000000
O    -5.612000000    -6.318000000    -0.988000000
H    -6.176000000    -7.014000000    -1.326000000
H    -4.956000000    -6.187000000    -1.672000000
O     5.000000000    -1.955000000    -0.976000000
H     4.192000000    -1.982000000    -0.464000000
H     5.258000000    -2.873000000    -1.064000000
O     2.344000000    -1.462000000    -0.882000000
H     1.666000000    -0.823000000    -0.663000000
H     2.643000000    -1.205000000    -1.754000000
O     1.947000000     5.429000000    -3.899000000
H     1.505000000     5.084000000    -4.675000000
H     1.587000000     4.921000000    -3.172000000
O     4.081000000     1.834000000    -2.616000000
H     4.324000000     1.542000000    -1.738000000
H     3.712000000     1.056000000    -3.034000000
O     1.009000000    -4.715000000     0.391000000
H     0.828000000    -4.589000000    -0.541000000
H     1.875000000    -4.330000000     0.521000000
O     3.603000000    -3.599000000     1.025000000
H     4.487000000    -3.951000000     1.135000000
H     3.145000000    -3.846000000     1.828000000
O     1.987000000    -3.978000000    -2.236000000
H     1.320000000    -3.798000000    -2.897000000
H     2.120000000    -3.140000000    -1.794000000
O    -5.517000000    -3.502000000    -4.701000000
H    -6.369000000    -3.628000000    -4.283000000
H    -5.213000000    -2.655000000    -4.376000000
O    -4.068000000    -1.260000000    -4.162000000
H    -3.186000000    -1.615000000    -4.056000000
H    -4.036000000    -0.405000000    -3.732000000
O     4.380000000     4.540000000     2.413000000
H     5.113000000     4.015000000     2.092000000
H     4.078000000     5.025000000     1.644000000
O    -2.499000000     1.833000000    -0.203000000
H    -2.876000000     1.022000000     0.137000000
H    -1.595000000     1.828000000     0.112000000
O     0.092000000    -0.468000000     6.386000000
H     0.274000000    -1.108000000     5.699000000
H     0.908000000    -0.411000000     6.883000000
O    -1.371000000     1.744000000     4.971000000
H    -2.267000000     1.766000000     5.307000000
H    -0.919000000     1.116000000     5.536000000
O    -1.758000000    -5.054000000    -5.711000000
H    -2.244000000    -5.866000000    -5.857000000
H    -1.643000000    -5.011000000    -4.761000000
O    -1.099000000     4.928000000    -0.265000000
H    -1.244000000     5.062000000     0.671000000
H    -0.291000000     5.407000000    -0.453000000
O    -0.584000000     3.955000000    -4.220000000
H    -0.836000000     3.611000000    -5.076000000
H    -0.038000000     3.269000000    -3.837000000
O    -2.555000000    -0.486000000     3.664000000
H    -1.860000000     0.132000000     3.891000000
H    -3.273000000    -0.269000000     4.259000000
O    -3.517000000    -0.622000000     0.749000000
H    -4.261000000    -1.224000000     0.769000000
H    -3.278000000    -0.506000000     1.669000000
O    -1.447000000    -5.291000000    -3.105000000
H    -1.465000000    -4.596000000    -2.446000000
H    -0.876000000    -5.962000000    -2.730000000
O     0.702000000    -3.298000000    -4.673000000
H     0.029000000    -3.462000000    -5.334000000
H     0.264000000    -2.760000000    -4.014000000
O    -4.216000000    -5.899000000    -3.472000000
H    -3.266000000    -5.899000000    -3.361000000
H    -4.396000000    -5.123000000    -4.003000000
O     1.412000000     2.201000000    -3.416000000
H     2.301000000     2.412000000    -3.130000000
H     1.529000000     1.522000000    -4.080000000
O     2.187000000     6.842000000     3.863000000
H     1.558000000     7.530000000     4.081000000
H     1.849000000     6.061000000     4.300000000
O     2.543000000     6.097000000     1.044000000
H     1.838000000     6.605000000     0.643000000
H     2.371000000     6.149000000     1.984000000
