161
-3032.86999
C    -0.142000000     0.307000000    -1.465000000
H    -0.079000000     0.712000000    -2.472000000
C    -0.106000000     1.241000000    -0.444000000
H    -0.111000000     2.271000000    -0.792000000
C     0.026000000     0.815000000     0.847000000
C     0.003000000     1.830000000     2.026000000
H     1.013000000     2.048000000     2.380000000
H    -0.598000000     2.705000000     1.770000000
H    -0.460000000     1.456000000     2.942000000
C     0.093000000    -0.513000000     1.203000000
H     0.360000000    -0.845000000     2.203000000
C     0.136000000    -1.447000000     0.190000000
H     0.306000000    -2.502000000     0.390000000
C    -0.082000000    -1.043000000    -1.163000000
C    -0.141000000    -2.053000000    -2.276000000
O    -0.188000000    -3.239000000    -1.876000000
O    -0.029000000    -1.735000000    -3.458000000
O    -1.058000000    -4.551000000     2.070000000
H    -1.677000000    -4.035000000     2.586000000
H    -1.231000000    -4.297000000     1.164000000
O    -2.848000000    -6.295000000     0.126000000
H    -3.538000000    -6.734000000    -0.370000000
H    -2.829000000    -5.405000000    -0.225000000
O     3.965000000     0.138000000     1.826000000
H     4.109000000    -0.516000000     2.510000000
H     4.777000000     0.645000000     1.805000000
O    -3.489000000     3.197000000    -5.663000000
H    -3.415000000     3.200000000    -4.709000000
H    -2.586000000     3.139000000    -5.974000000
O    -0.925000000     5.056000000     3.570000000
H    -0.381000000     4.334000000     3.884000000
H    -1.123000000     5.567000000     4.355000000
O     0.749000000     3.495000000     4.898000000
H     1.079000000     2.607000000     4.759000000
H     0.685000000     3.581000000     5.849000000
O     1.816000000    -4.779000000     2.713000000
H     2.014000000    -5.596000000     2.255000000
H     0.968000000    -4.508000000     2.362000000
O     2.282000000     1.404000000    -4.061000000
H     2.288000000     0.449000000    -4.133000000
H     1.612000000     1.687000000    -4.683000000
O    -2.006000000     2.099000000     6.839000000
H    -2.425000000     2.827000000     7.300000000
H    -2.002000000     1.384000000     7.475000000
O     2.492000000     1.087000000     5.118000000
H     2.639000000     0.924000000     6.050000000
H     2.470000000     0.215000000     4.723000000
O    -2.453000000     6.057000000    -2.911000000
H    -1.941000000     6.866000000    -2.909000000
H    -1.880000000     5.413000000    -3.327000000
O     3.526000000    -2.872000000     3.582000000
H     4.325000000    -3.286000000     3.256000000
H     2.849000000    -3.541000000     3.477000000
O    -1.058000000    -0.466000000    -7.650000000
H    -1.698000000    -1.173000000    -7.740000000
H    -1.301000000    -0.026000000    -6.835000000
O     4.791000000     3.483000000     1.900000000
H     4.281000000     3.244000000     2.674000000
H     5.494000000     4.037000000     2.239000000
O    -0.906000000     5.653000000     0.922000000
H    -0.871000000     5.371000000     1.836000000
H    -1.733000000     6.129000000     0.850000000
O    -3.406000000     1.674000000    -2.925000000
H    -4.284000000     1.439000000    -3.225000000
H    -3.509000000     1.844000000    -1.989000000
O    -2.126000000    -3.667000000    -0.316000000
H    -1.406000000    -3.401000000    -0.888000000
H    -2.903000000    -3.627000000    -0.873000000
O    -5.722000000     2.790000000     0.545000000
H    -5.810000000     3.046000000     1.463000000
H    -4.789000000     2.605000000     0.436000000
O    -3.674000000     5.508000000     3.596000000
H    -2.909000000     5.528000000     3.021000000
H    -3.316000000     5.643000000     4.474000000
O     3.471000000    -1.660000000    -2.141000000
H     2.949000000    -1.559000000    -2.937000000
H     3.270000000    -0.881000000    -1.622000000
O    -0.114000000    -7.904000000    -3.207000000
H    -0.081000000    -6.953000000    -3.310000000
H    -0.256000000    -8.038000000    -2.270000000
O     4.031000000     3.315000000     4.526000000
H     3.477000000     2.536000000     4.577000000
H     4.343000000     3.445000000     5.421000000
O    -4.364000000     4.828000000    -1.524000000
H    -3.982000000     4.047000000    -1.123000000
H    -3.644000000     5.221000000    -2.017000000
O     2.866000000    -6.666000000     1.042000000
H     2.355000000    -6.070000000     0.495000000
H     3.677000000    -6.805000000     0.553000000
O     1.780000000    -0.440000000    -7.159000000
H     0.868000000    -0.379000000    -7.444000000
H     2.288000000    -0.171000000    -7.924000000
O    -0.170000000    -7.598000000    -0.282000000
H    -0.925000000    -7.076000000    -0.012000000
H     0.484000000    -7.444000000     0.400000000
O    -4.892000000     3.209000000     3.118000000
H    -4.255000000     2.681000000     3.600000000
H    -4.648000000     4.114000000     3.313000000
O     4.425000000    -4.025000000    -1.434000000
H     5.345000000    -3.943000000    -1.182000000
H     4.176000000    -3.147000000    -1.723000000
O     2.741000000     3.041000000    -0.003000000
H     3.240000000     3.155000000     0.806000000
H     2.036000000     2.438000000     0.233000000
O     1.720000000    -4.802000000    -0.811000000
H     1.205000000    -4.271000000    -1.419000000
H     2.625000000    -4.529000000    -0.961000000
O     3.114000000    -4.433000000    -3.900000000
H     3.448000000    -4.301000000    -3.013000000
H     2.994000000    -3.548000000    -4.245000000
O    -4.445000000    -3.116000000    -1.994000000
H    -4.590000000    -2.506000000    -1.271000000
H    -5.253000000    -3.627000000    -2.042000000
O    -1.457000000     0.316000000    -5.030000000
H    -0.974000000    -0.263000000    -4.440000000
H    -2.225000000     0.584000000    -4.526000000
O    -1.519000000    -7.110000000     2.191000000
H    -1.210000000    -6.219000000     2.354000000
H    -2.227000000    -7.005000000     1.555000000
O    -3.226000000     1.686000000    -0.296000000
H    -3.494000000     1.101000000     0.413000000
H    -2.364000000     1.364000000    -0.559000000
O     2.561000000    -1.600000000     5.925000000
H     3.116000000    -1.974000000     5.240000000
H     1.790000000    -2.166000000     5.944000000
O    -2.899000000     1.378000000     4.370000000
H    -3.503000000     0.801000000     4.838000000
H    -2.219000000     1.584000000     5.012000000
O    -1.670000000    -3.717000000    -6.009000000
H    -2.435000000    -3.362000000    -6.460000000
H    -1.456000000    -3.060000000    -5.346000000
O     0.796000000     7.111000000    -1.359000000
H     0.568000000     6.212000000    -1.124000000
H     1.437000000     7.376000000    -0.699000000
O    -3.995000000     0.404000000     1.954000000
H    -3.622000000     0.810000000     2.737000000
H    -4.840000000     0.059000000     2.243000000
O    -2.369000000    -3.523000000     4.343000000
H    -3.129000000    -3.944000000     3.940000000
H    -2.722000000    -3.082000000     5.116000000
O    -0.726000000    -5.287000000    -3.696000000
H    -0.466000000    -4.721000000    -2.969000000
H    -0.807000000    -4.694000000    -4.443000000
O     2.186000000    -1.427000000    -4.598000000
H     2.094000000    -1.353000000    -5.548000000
H     1.287000000    -1.417000000    -4.269000000
O    -3.796000000    -5.951000000    -3.648000000
H    -2.968000000    -5.873000000    -4.122000000
H    -4.006000000    -5.055000000    -3.383000000
O    -0.314000000    -2.057000000     5.695000000
H    -0.267000000    -1.258000000     5.171000000
H    -0.875000000    -2.644000000     5.188000000
O     3.874000000     3.131000000    -2.440000000
H     3.485000000     3.076000000    -1.567000000
H     3.232000000     2.714000000    -3.015000000
O     2.126000000     4.527000000     2.854000000
H     3.004000000     4.515000000     3.235000000
H     1.567000000     4.141000000     3.528000000
O     1.157000000     7.293000000     1.897000000
H     0.343000000     6.977000000     1.506000000
H     1.451000000     6.572000000     2.453000000
