161
-3027.45736
C    -0.670000000    -0.941000000     0.965000000
H    -1.236000000    -1.513000000     1.695000000
C    -0.829000000     0.439000000     0.962000000
H    -1.566000000     0.932000000     1.590000000
C    -0.043000000     1.170000000     0.089000000
C    -0.245000000     2.653000000     0.034000000
H     0.540000000     3.146000000     0.612000000
H    -0.209000000     2.991000000    -1.004000000
H    -1.221000000     3.040000000     0.335000000
C     0.908000000     0.595000000    -0.687000000
H     1.568000000     1.256000000    -1.243000000
C     1.050000000    -0.777000000    -0.785000000
H     1.661000000    -1.364000000    -1.467000000
C     0.113000000    -1.545000000    -0.030000000
C     0.059000000    -2.992000000    -0.298000000
O     0.861000000    -3.441000000    -1.039000000
O    -0.743000000    -3.656000000     0.272000000
O    -4.641000000     5.796000000    -1.921000000
H    -4.405000000     5.860000000    -0.996000000
H    -4.952000000     4.897000000    -2.027000000
O    -1.809000000     6.089000000    -2.528000000
H    -2.745000000     5.972000000    -2.689000000
H    -1.738000000     6.175000000    -1.577000000
O    -1.879000000    -1.971000000    -4.366000000
H    -1.118000000    -2.193000000    -3.829000000
H    -2.540000000    -2.620000000    -4.124000000
O    -3.975000000     3.740000000     0.816000000
H    -4.849000000     3.897000000     1.171000000
H    -3.400000000     4.300000000     1.338000000
O    -4.790000000     3.194000000    -1.940000000
H    -4.068000000     2.625000000    -2.207000000
H    -4.696000000     3.271000000    -0.991000000
O    -2.223000000     0.053000000     5.036000000
H    -2.604000000     0.161000000     5.907000000
H    -2.691000000     0.685000000     4.490000000
O    -3.074000000     3.494000000     5.456000000
H    -3.452000000     2.893000000     4.813000000
H    -3.632000000     4.271000000     5.414000000
O     3.409000000    -7.183000000    -0.505000000
H     3.402000000    -7.355000000     0.437000000
H     2.498000000    -6.986000000    -0.720000000
O    -3.063000000    -3.341000000     1.528000000
H    -3.549000000    -3.196000000     0.716000000
H    -2.246000000    -3.753000000     1.248000000
O     2.074000000    -1.812000000    -5.639000000
H     2.682000000    -1.576000000    -4.938000000
H     2.619000000    -2.255000000    -6.290000000
O     0.449000000     4.220000000    -3.808000000
H    -0.006000000     4.587000000    -4.566000000
H    -0.064000000     4.513000000    -3.056000000
O    -0.329000000     3.717000000     5.523000000
H    -1.286000000     3.748000000     5.513000000
H    -0.097000000     3.254000000     4.718000000
O    -2.091000000    -2.714000000     3.923000000
H    -2.519000000    -2.806000000     3.072000000
H    -2.282000000    -1.816000000     4.192000000
O     4.185000000     5.082000000     0.727000000
H     4.151000000     6.006000000     0.975000000
H     5.103000000     4.928000000     0.501000000
O    -1.679000000    -5.849000000    -1.058000000
H    -1.229000000    -5.367000000    -0.364000000
H    -2.501000000    -5.375000000    -1.185000000
O     1.049000000    -6.134000000    -1.280000000
H     1.085000000    -5.179000000    -1.229000000
H     0.122000000    -6.332000000    -1.414000000
O     3.229000000    -3.830000000    -3.495000000
H     3.187000000    -4.019000000    -2.558000000
H     3.647000000    -2.970000000    -3.548000000
O     4.785000000     3.606000000     3.160000000
H     4.661000000     4.056000000     2.324000000
H     5.734000000     3.537000000     3.257000000
O    -0.445000000    -5.470000000     2.254000000
H     0.415000000    -5.433000000     2.673000000
H    -0.390000000    -4.835000000     1.540000000
O     3.659000000    -3.758000000    -0.705000000
H     2.708000000    -3.739000000    -0.808000000
H     3.796000000    -3.957000000     0.222000000
O     2.019000000     2.101000000    -4.155000000
H     1.351000000     2.759000000    -3.964000000
H     1.548000000     1.410000000    -4.620000000
O     0.300000000    -0.498000000     5.742000000
H    -0.598000000    -0.451000000     5.413000000
H     0.756000000    -1.057000000     5.113000000
O     3.513000000    -0.817000000    -3.563000000
H     3.017000000    -0.049000000    -3.278000000
H     4.418000000    -0.620000000    -3.321000000
O     0.332000000     2.039000000     3.533000000
H     0.800000000     1.773000000     2.742000000
H     0.387000000     1.278000000     4.111000000
O     0.627000000     7.799000000     0.531000000
H     0.500000000     8.727000000     0.336000000
H     0.697000000     7.762000000     1.485000000
O     0.012000000    -4.070000000    -6.038000000
H     0.213000000    -4.833000000    -5.497000000
H     0.074000000    -3.327000000    -5.438000000
O    -3.580000000     1.838000000     3.336000000
H    -3.342000000     2.451000000     2.640000000
H    -3.681000000     0.997000000     2.890000000
O     0.875000000    -2.496000000     3.892000000
H     1.379000000    -3.166000000     4.355000000
H     0.024000000    -2.904000000     3.734000000
O     6.035000000    -3.668000000    -1.875000000
H     6.139000000    -2.756000000    -1.605000000
H     5.213000000    -3.945000000    -1.469000000
O     4.183000000    -4.538000000     2.048000000
H     3.872000000    -5.423000000     2.242000000
H     5.080000000    -4.662000000     1.739000000
O    -0.637000000    -3.487000000     6.835000000
H     0.293000000    -3.269000000     6.774000000
H    -0.981000000    -3.315000000     5.958000000
O    -2.374000000    -8.119000000    -2.898000000
H    -2.245000000    -7.374000000    -2.310000000
H    -1.685000000    -8.027000000    -3.556000000
O    -2.620000000     1.606000000    -2.444000000
H    -2.278000000     1.952000000    -1.620000000
H    -1.870000000     1.173000000    -2.852000000
O     0.233000000     0.417000000    -5.113000000
H    -0.688000000     0.635000000    -5.257000000
H     0.288000000    -0.521000000    -5.295000000
O    -2.114000000    -7.576000000     2.199000000
H    -1.691000000    -6.794000000     1.844000000
H    -2.440000000    -7.304000000     3.057000000
O    -5.014000000    -3.109000000    -0.454000000
H    -5.260000000    -2.933000000    -1.362000000
H    -5.803000000    -2.914000000     0.051000000
O     2.311000000    -5.899000000    -5.259000000
H     2.775000000    -5.240000000    -4.743000000
H     1.921000000    -5.406000000    -5.981000000
O     4.135000000     2.444000000    -0.339000000
H     3.656000000     3.151000000     0.093000000
H     3.969000000     1.674000000     0.205000000
O    -3.554000000    -4.300000000    -3.393000000
H    -3.810000000    -3.779000000    -2.632000000
H    -4.285000000    -4.904000000    -3.526000000
O     4.561000000     2.715000000    -3.519000000
H     4.562000000     2.720000000    -2.562000000
H     3.641000000     2.599000000    -3.756000000
O     3.365000000     0.306000000     1.036000000
H     3.360000000    -0.216000000     1.838000000
H     2.669000000    -0.073000000     0.500000000
O     5.830000000    -1.270000000    -0.603000000
H     6.569000000    -0.979000000    -0.068000000
H     5.059000000    -0.922000000    -0.155000000
O     0.452000000    -3.205000000    -3.600000000
H     1.312000000    -2.887000000    -3.875000000
H     0.537000000    -3.342000000    -2.657000000
O    -1.784000000     4.067000000     2.382000000
H    -1.516000000     4.942000000     2.663000000
H    -0.985000000     3.543000000     2.432000000
O    -3.869000000    -0.354000000     1.747000000
H    -3.834000000    -1.310000000     1.731000000
H    -4.684000000    -0.136000000     1.294000000
O    -1.679000000     6.882000000     2.875000000
H    -2.303000000     7.245000000     3.503000000
H    -0.821000000     7.052000000     3.264000000
O    -2.092000000     6.990000000    -0.077000000
H    -1.339000000     7.085000000     0.505000000
H    -2.840000000     6.890000000     0.513000000
O     3.145000000    -2.095000000     2.733000000
H     2.218000000    -2.281000000     2.885000000
H     3.523000000    -2.941000000     2.492000000
