161
-3024.43196
C     0.558000000    -1.289000000    -0.492000000
H     1.174000000    -2.075000000    -0.920000000
C     1.257000000    -0.185000000    -0.139000000
H     2.325000000    -0.119000000    -0.328000000
C     0.628000000     1.038000000     0.161000000
C     1.506000000     2.200000000     0.622000000
H     0.867000000     3.084000000     0.672000000
H     2.014000000     2.088000000     1.582000000
H     2.370000000     2.387000000    -0.020000000
C    -0.791000000     1.040000000     0.320000000
H    -1.348000000     1.910000000     0.656000000
C    -1.490000000    -0.125000000     0.106000000
H    -2.575000000    -0.203000000     0.122000000
C    -0.803000000    -1.287000000    -0.318000000
C    -1.663000000    -2.501000000    -0.587000000
O    -2.836000000    -2.319000000    -0.883000000
O    -1.189000000    -3.642000000    -0.552000000
O    -0.294000000     1.941000000     5.943000000
H     0.340000000     1.791000000     5.242000000
H    -1.142000000     1.742000000     5.546000000
O    -1.263000000     4.396000000     1.599000000
H    -1.881000000     4.397000000     2.331000000
H    -0.478000000     3.976000000     1.950000000
O     1.583000000     4.124000000    -4.032000000
H     1.802000000     5.054000000    -3.984000000
H     0.697000000     4.067000000    -3.672000000
O    -4.761000000    -0.402000000    -1.178000000
H    -4.128000000    -1.051000000    -0.873000000
H    -5.611000000    -0.749000000    -0.907000000
O     1.407000000     4.042000000     3.152000000
H     1.611000000     3.107000000     3.178000000
H     2.193000000     4.449000000     2.789000000
O    -4.233000000    -2.817000000     1.321000000
H    -3.723000000    -2.459000000     0.594000000
H    -4.292000000    -3.753000000     1.134000000
O    -1.771000000    -7.059000000     2.438000000
H    -1.084000000    -6.712000000     1.868000000
H    -2.542000000    -6.531000000     2.231000000
O    -2.982000000    -5.602000000    -0.245000000
H    -2.646000000    -6.139000000    -0.962000000
H    -2.543000000    -4.758000000    -0.353000000
O    -4.955000000     2.402000000     2.567000000
H    -5.912000000     2.416000000     2.577000000
H    -4.731000000     1.476000000     2.475000000
O     1.076000000     7.587000000     1.993000000
H     1.068000000     8.152000000     1.220000000
H     1.527000000     6.793000000     1.705000000
O     1.585000000     5.677000000     5.061000000
H     1.118000000     6.383000000     4.615000000
H     1.541000000     4.939000000     4.454000000
O    -1.999000000     7.243000000     0.663000000
H    -1.861000000     6.339000000     0.944000000
H    -1.304000000     7.404000000     0.024000000
O     0.131000000     6.596000000    -0.870000000
H     0.978000000     6.317000000    -0.523000000
H    -0.209000000     5.823000000    -1.322000000
O     4.763000000    -4.248000000    -2.134000000
H     5.024000000    -5.129000000    -2.402000000
H     5.199000000    -3.668000000    -2.758000000
O    -1.617000000    -7.590000000    -2.218000000
H    -1.027000000    -6.837000000    -2.255000000
H    -1.473000000    -8.047000000    -3.047000000
O    -5.773000000    -5.236000000     1.102000000
H    -5.051000000    -5.791000000     0.808000000
H    -6.352000000    -5.174000000     0.342000000
O    -3.697000000     2.114000000    -2.510000000
H    -3.034000000     2.291000000    -1.843000000
H    -4.056000000     1.259000000    -2.270000000
O     1.420000000     1.427000000     3.926000000
H     2.187000000     1.517000000     4.491000000
H     1.503000000     0.553000000     3.545000000
O     1.118000000    -1.271000000     2.699000000
H     2.062000000    -1.123000000     2.745000000
H     0.922000000    -1.283000000     1.762000000
O    -0.801000000     4.253000000    -2.639000000
H    -1.385000000     4.276000000    -1.881000000
H    -1.366000000     3.997000000    -3.368000000
O    -7.302000000    -1.810000000    -0.928000000
H    -6.953000000    -2.670000000    -0.692000000
H    -7.611000000    -1.917000000    -1.828000000
O    -6.324000000    -5.022000000    -3.322000000
H    -6.687000000    -4.730000000    -4.158000000
H    -5.425000000    -4.692000000    -3.322000000
O     2.811000000     5.935000000     0.143000000
H     3.573000000     5.556000000     0.583000000
H     3.180000000     6.445000000    -0.578000000
O     1.374000000    -6.220000000     3.234000000
H     0.946000000    -5.771000000     2.505000000
H     1.023000000    -7.111000000     3.205000000
O     5.427000000    -0.649000000    -3.004000000
H     5.770000000     0.020000000    -3.596000000
H     6.036000000    -1.383000000    -3.092000000
O    -3.616000000    -2.356000000     3.987000000
H    -3.943000000    -2.714000000     3.161000000
H    -3.129000000    -1.572000000     3.732000000
O     5.559000000     2.274000000     3.204000000
H     6.181000000     2.492000000     2.511000000
H     6.072000000     1.773000000     3.838000000
O    -2.125000000    -0.081000000     3.828000000
H    -2.292000000     0.812000000     3.525000000
H    -1.172000000    -0.171000000     3.793000000
O     0.432000000    -5.451000000     0.673000000
H    -0.098000000    -4.739000000     0.314000000
H     0.934000000    -5.777000000    -0.074000000
O     3.910000000     4.387000000     2.621000000
H     4.286000000     3.516000000     2.744000000
H     4.603000000     4.890000000     2.194000000
O     4.194000000    -2.335000000     0.418000000
H     4.207000000    -1.379000000     0.380000000
H     4.702000000    -2.612000000    -0.344000000
O    -3.877000000    -3.512000000    -2.961000000
H    -3.217000000    -3.723000000    -3.622000000
H    -3.371000000    -3.255000000    -2.191000000
O     4.172000000     2.881000000    -3.578000000
H     3.285000000     3.165000000    -3.801000000
H     4.600000000     3.671000000    -3.248000000
O    -1.685000000    -4.247000000    -4.857000000
H    -1.094000000    -4.195000000    -5.608000000
H    -1.149000000    -4.619000000    -4.156000000
O     2.871000000    -1.865000000    -2.726000000
H     3.130000000    -2.653000000    -2.249000000
H     3.698000000    -1.458000000    -2.984000000
O     3.552000000    -0.055000000     2.935000000
H     4.069000000    -0.708000000     3.406000000
H     4.201000000     0.545000000     2.567000000
O     2.129000000    -5.812000000    -1.587000000
H     2.451000000    -6.713000000    -1.577000000
H     2.918000000    -5.275000000    -1.510000000
O    -5.493000000    -0.428000000     2.179000000
H    -5.010000000    -1.225000000     1.962000000
H    -6.383000000    -0.729000000     2.362000000
O     3.376000000     2.192000000     5.719000000
H     4.205000000     1.720000000     5.800000000
H     2.873000000     1.925000000     6.488000000
O     2.087000000    -2.533000000    -5.429000000
H     1.645000000    -2.333000000    -4.604000000
H     1.509000000    -3.159000000    -5.865000000
O    -5.657000000    -1.831000000    -4.065000000
H    -4.888000000    -2.332000000    -3.794000000
H    -5.851000000    -1.266000000    -3.318000000
O     0.645000000     0.069000000    -3.277000000
H     0.196000000     0.217000000    -2.445000000
H     1.475000000    -0.340000000    -3.032000000
O    -0.351000000    -5.133000000    -2.637000000
H     0.555000000    -5.332000000    -2.401000000
H    -0.641000000    -4.511000000    -1.970000000
O    -2.622000000     4.128000000    -0.697000000
H    -3.571000000     4.139000000    -0.573000000
H    -2.264000000     4.296000000     0.174000000
O     5.740000000     2.780000000    -0.917000000
H     6.379000000     3.226000000    -1.472000000
H     4.908000000     3.207000000    -1.120000000
O     5.509000000     0.200000000    -0.554000000
H     5.767000000     1.121000000    -0.594000000
H     5.568000000    -0.105000000    -1.459000000
O    -2.706000000     2.834000000     4.262000000
H    -2.743000000     3.649000000     4.762000000
H    -3.404000000     2.919000000     3.613000000
O    -5.242000000     4.462000000     0.107000000
H    -4.844000000     4.328000000     0.968000000
H    -6.173000000     4.584000000     0.291000000
