161
-3049.76893
C     0.314000000    -1.219000000     0.672000000
H     0.622000000    -2.079000000     1.261000000
C     0.870000000     0.052000000     0.919000000
H     1.712000000     0.138000000     1.602000000
C     0.530000000     1.136000000     0.168000000
C     1.198000000     2.447000000     0.400000000
H     0.474000000     3.230000000     0.631000000
H     1.860000000     2.294000000     1.255000000
H     1.775000000     2.820000000    -0.450000000
C    -0.386000000     0.914000000    -0.889000000
H    -0.534000000     1.763000000    -1.552000000
C    -1.087000000    -0.298000000    -1.099000000
H    -1.898000000    -0.380000000    -1.818000000
C    -0.733000000    -1.410000000    -0.297000000
C    -1.319000000    -2.814000000    -0.354000000
O    -2.415000000    -2.839000000    -0.804000000
O    -0.986000000    -3.753000000     0.348000000
O     2.547000000     6.663000000     1.951000000
H     3.022000000     5.925000000     1.568000000
H     1.627000000     6.401000000     1.915000000
O    -2.244000000     5.726000000     2.658000000
H    -2.231000000     5.696000000     3.615000000
H    -3.017000000     6.249000000     2.445000000
O     4.303000000     4.988000000     0.733000000
H     5.029000000     4.468000000     0.387000000
H     4.377000000     4.900000000     1.683000000
O     1.780000000     0.537000000    -5.017000000
H     1.882000000     1.488000000    -5.023000000
H     1.887000000     0.290000000    -4.098000000
O    -3.236000000    -2.201000000    -3.175000000
H    -2.915000000    -2.406000000    -2.297000000
H    -4.188000000    -2.179000000    -3.083000000
O     4.103000000    -0.863000000     2.297000000
H     4.158000000    -0.246000000     1.566000000
H     4.953000000    -1.304000000     2.303000000
O    -6.242000000     0.153000000    -3.457000000
H    -6.476000000    -0.603000000    -3.995000000
H    -6.468000000    -0.110000000    -2.564000000
O     2.204000000     5.321000000    -1.375000000
H     2.921000000     5.014000000    -0.819000000
H     1.699000000     5.908000000    -0.813000000
O    -4.422000000    -1.157000000    -0.068000000
H    -3.760000000    -1.677000000    -0.524000000
H    -3.935000000    -0.420000000     0.301000000
O     4.831000000     1.103000000     0.463000000
H     5.297000000     1.883000000     0.765000000
H     4.634000000     1.283000000    -0.456000000
O    -1.752000000    -6.271000000     4.280000000
H    -1.832000000    -5.569000000     4.926000000
H    -2.637000000    -6.379000000     3.931000000
O    -6.082000000    -2.973000000    -3.219000000
H    -5.579000000    -3.573000000    -2.668000000
H    -6.995000000    -3.144000000    -2.987000000
O    -6.400000000    -3.625000000     0.715000000
H    -5.892000000    -2.913000000     1.103000000
H    -5.812000000    -4.013000000     0.066000000
O     2.373000000     3.127000000    -5.349000000
H     2.696000000     3.828000000    -4.782000000
H     1.553000000     3.468000000    -5.707000000
O    -0.065000000     6.094000000     1.184000000
H    -0.770000000     5.917000000     1.807000000
H    -0.386000000     6.830000000     0.662000000
O     0.485000000     5.000000000     5.635000000
H     0.905000000     4.582000000     6.388000000
H     0.950000000     4.647000000     4.876000000
O     0.244000000     4.632000000    -3.317000000
H     0.679000000     4.620000000    -2.464000000
H     0.148000000     5.562000000    -3.523000000
O     4.938000000     2.408000000    -3.127000000
H     4.723000000     1.790000000    -3.825000000
H     4.327000000     3.134000000    -3.253000000
O     4.857000000    -1.467000000    -1.552000000
H     5.014000000    -1.696000000    -2.468000000
H     5.718000000    -1.217000000    -1.216000000
O    -7.073000000    -0.911000000    -0.979000000
H    -7.051000000    -1.867000000    -1.001000000
H    -6.357000000    -0.668000000    -0.392000000
O    -0.869000000    -3.201000000     2.904000000
H    -0.947000000    -3.404000000     1.971000000
H    -1.374000000    -3.887000000     3.340000000
O    -1.009000000    -6.606000000    -3.743000000
H    -0.053000000    -6.628000000    -3.712000000
H    -1.271000000    -6.336000000    -2.862000000
O     4.055000000     5.026000000     3.565000000
H     3.692000000     5.902000000     3.433000000
H     4.644000000     5.123000000     4.314000000
O    -0.246000000    -0.766000000     4.153000000
H    -0.516000000     0.036000000     3.706000000
H    -0.431000000    -1.465000000     3.526000000
O     2.948000000    -6.690000000    -1.501000000
H     3.568000000    -6.000000000    -1.268000000
H     2.095000000    -6.255000000    -1.506000000
O    -1.865000000    -5.905000000    -1.195000000
H    -1.226000000    -6.508000000    -0.814000000
H    -1.795000000    -5.114000000    -0.661000000
O    -2.383000000     0.378000000     1.788000000
H    -1.765000000     0.136000000     1.098000000
H    -2.111000000     1.256000000     2.056000000
O     2.100000000     0.839000000     4.776000000
H     1.404000000     0.197000000     4.633000000
H     2.633000000     0.462000000     5.476000000
O     3.449000000     4.917000000    -3.860000000
H     4.256000000     5.417000000    -3.740000000
H     2.928000000     5.114000000    -3.082000000
O     2.613000000    -2.670000000     3.728000000
H     1.770000000    -2.253000000     3.909000000
H     2.976000000    -2.170000000     2.998000000
O     3.149000000    -5.444000000     3.492000000
H     2.880000000    -4.552000000     3.271000000
H     2.337000000    -5.951000000     3.469000000
O    -0.442000000     1.741000000     3.295000000
H     0.239000000     2.203000000     3.784000000
H    -0.322000000     2.027000000     2.389000000
O     0.726000000    -5.002000000    -1.503000000
H     0.056000000    -4.789000000    -0.853000000
H     0.849000000    -4.189000000    -1.993000000
O     1.834000000     3.281000000     3.836000000
H     2.118000000     2.391000000     4.046000000
H     2.644000000     3.790000000     3.809000000
O    -4.477000000    -4.420000000    -1.134000000
H    -4.012000000    -5.250000000    -1.244000000
H    -3.784000000    -3.775000000    -0.994000000
O    -4.625000000    -2.498000000     2.533000000
H    -3.983000000    -3.173000000     2.315000000
H    -4.320000000    -1.718000000     2.068000000
O    -1.937000000     3.530000000    -4.691000000
H    -1.222000000     3.701000000    -4.078000000
H    -2.466000000     2.859000000    -4.259000000
O    -1.199000000    -2.378000000    -5.090000000
H    -0.973000000    -1.753000000    -5.778000000
H    -1.990000000    -2.018000000    -4.689000000
O     4.474000000    -4.323000000    -1.145000000
H     5.230000000    -4.511000000    -0.588000000
H     4.433000000    -3.367000000    -1.178000000
O     2.269000000    -0.419000000    -2.217000000
H     2.260000000     0.503000000    -1.958000000
H     3.006000000    -0.795000000    -1.736000000
O    -3.577000000    -4.609000000    -4.721000000
H    -2.916000000    -5.245000000    -4.996000000
H    -3.167000000    -4.134000000    -3.999000000
O    -3.791000000     1.794000000    -3.593000000
H    -4.095000000     2.229000000    -2.797000000
H    -4.394000000     1.060000000    -3.710000000
O     1.141000000    -2.888000000    -3.649000000
H     1.366000000    -2.041000000    -3.266000000
H     0.239000000    -2.783000000    -3.952000000
O     0.673000000    -7.190000000     2.883000000
H     0.350000000    -7.558000000     2.061000000
H    -0.107000000    -7.104000000     3.430000000
O    -3.206000000    -4.896000000     1.686000000
H    -2.438000000    -4.685000000     1.155000000
H    -3.623000000    -5.625000000     1.227000000
O    -2.173000000     3.156000000     1.397000000
H    -2.053000000     3.927000000     1.951000000
H    -1.684000000     3.356000000     0.599000000
O     6.399000000     3.326000000     1.384000000
H     6.350000000     3.337000000     2.340000000
H     7.314000000     3.120000000     1.193000000
O    -4.595000000     3.108000000    -1.408000000
H    -4.009000000     3.849000000    -1.255000000
H    -5.369000000     3.494000000    -1.818000000
