161
-3046.50674
C     0.132000000    -1.385000000    -0.449000000
H     0.262000000    -2.451000000    -0.617000000
C     1.066000000    -0.754000000     0.415000000
H     1.936000000    -1.280000000     0.798000000
C     0.905000000     0.641000000     0.666000000
C     1.728000000     1.357000000     1.594000000
H     1.222000000     1.691000000     2.502000000
H     2.578000000     0.759000000     1.926000000
H     2.137000000     2.248000000     1.112000000
C    -0.188000000     1.275000000     0.067000000
H    -0.360000000     2.329000000     0.268000000
C    -1.142000000     0.562000000    -0.739000000
H    -1.985000000     1.142000000    -1.107000000
C    -1.050000000    -0.760000000    -0.959000000
C    -2.087000000    -1.534000000    -1.700000000
O    -3.191000000    -1.093000000    -2.050000000
O    -1.964000000    -2.748000000    -1.732000000
O    -1.756000000     4.297000000     5.048000000
H    -1.279000000     4.045000000     5.839000000
H    -1.077000000     4.602000000     4.446000000
O    -2.484000000     4.565000000     1.232000000
H    -2.836000000     5.232000000     1.821000000
H    -1.542000000     4.737000000     1.210000000
O    -1.568000000     4.312000000    -4.468000000
H    -2.303000000     3.802000000    -4.128000000
H    -1.959000000     5.139000000    -4.750000000
O    -7.529000000    -3.119000000    -1.392000000
H    -6.926000000    -3.587000000    -1.969000000
H    -8.227000000    -2.814000000    -1.972000000
O    -5.027000000    -1.267000000    -5.625000000
H    -4.625000000    -1.519000000    -6.456000000
H    -4.643000000    -1.864000000    -4.983000000
O     5.766000000     5.648000000     2.156000000
H     6.277000000     5.741000000     1.351000000
H     5.069000000     5.034000000     1.927000000
O    -4.409000000     0.593000000    -3.295000000
H    -5.334000000     0.437000000    -3.105000000
H    -3.951000000    -0.130000000    -2.866000000
O     0.871000000     4.986000000     2.372000000
H     1.636000000     5.134000000     1.815000000
H     0.897000000     4.049000000     2.568000000
O    -5.104000000    -1.995000000    -0.394000000
H    -4.565000000    -1.637000000    -1.098000000
H    -5.919000000    -2.256000000    -0.824000000
O     0.199000000     0.578000000     5.406000000
H    -0.243000000     0.739000000     4.572000000
H    -0.444000000     0.824000000     6.070000000
O    -3.749000000    -6.877000000    -0.017000000
H    -3.150000000    -7.101000000     0.696000000
H    -3.909000000    -5.939000000     0.091000000
O     4.362000000     0.702000000     4.307000000
H     3.597000000     0.130000000     4.374000000
H     5.040000000     0.254000000     4.812000000
O    -3.066000000    -3.999000000     0.449000000
H    -3.743000000    -3.330000000     0.548000000
H    -2.579000000    -3.734000000    -0.332000000
O    -4.253000000     3.133000000    -4.512000000
H    -3.944000000     2.259000000    -4.273000000
H    -4.057000000     3.209000000    -5.446000000
O     0.104000000     4.865000000    -0.755000000
H    -0.352000000     5.634000000    -0.412000000
H     0.619000000     5.200000000    -1.489000000
O     3.785000000    -3.865000000    -2.773000000
H     4.069000000    -4.450000000    -3.475000000
H     3.322000000    -4.434000000    -2.159000000
O    -1.413000000    -1.342000000     2.334000000
H    -0.904000000    -1.149000000     1.547000000
H    -1.398000000    -2.297000000     2.401000000
O     1.748000000     2.252000000     7.327000000
H     1.594000000     1.784000000     6.506000000
H     0.914000000     2.196000000     7.794000000
O     3.004000000     5.498000000     0.746000000
H     3.071000000     4.996000000    -0.067000000
H     2.935000000     6.409000000     0.460000000
O     2.160000000    -1.056000000     4.178000000
H     1.486000000    -0.514000000     4.587000000
H     1.702000000    -1.520000000     3.478000000
O     2.012000000    -5.152000000     3.238000000
H     2.452000000    -4.912000000     2.422000000
H     1.146000000    -5.454000000     2.963000000
O    -0.170000000    -6.075000000     0.735000000
H     0.311000000    -6.898000000     0.827000000
H    -0.541000000    -6.111000000    -0.147000000
O    -4.665000000     0.246000000     3.223000000
H    -4.028000000     0.586000000     2.595000000
H    -5.327000000     0.935000000     3.289000000
O     2.044000000     3.402000000     4.431000000
H     2.173000000     4.350000000     4.427000000
H     2.894000000     3.043000000     4.175000000
O     5.658000000    -0.657000000     2.191000000
H     5.179000000    -0.115000000     2.817000000
H     6.410000000    -0.122000000     1.936000000
O     4.078000000    -2.756000000     4.925000000
H     3.347000000    -2.198000000     4.658000000
H     3.797000000    -3.643000000     4.698000000
O    -1.442000000     0.994000000     3.475000000
H    -1.846000000     1.711000000     2.986000000
H    -1.411000000     0.268000000     2.852000000
O    -1.209000000    -5.392000000    -1.727000000
H    -1.622000000    -4.538000000    -1.600000000
H    -1.761000000    -5.831000000    -2.374000000
O     3.561000000     6.277000000     3.655000000
H     4.464000000     6.163000000     3.358000000
H     3.032000000     6.153000000     2.866000000
O     5.490000000    -3.276000000    -0.520000000
H     5.831000000    -2.383000000    -0.466000000
H     5.257000000    -3.388000000    -1.441000000
O    -3.730000000    -2.933000000    -3.846000000
H    -3.197000000    -3.720000000    -3.730000000
H    -3.483000000    -2.366000000    -3.116000000
O     0.286000000     2.005000000    -4.967000000
H    -0.056000000     2.760000000    -4.487000000
H     0.620000000     1.421000000    -4.286000000
O     2.586000000     3.153000000    -1.878000000
H     2.585000000     2.313000000    -2.336000000
H     1.829000000     3.108000000    -1.293000000
O     2.208000000    -1.582000000    -3.907000000
H     1.366000000    -2.031000000    -3.977000000
H     2.757000000    -2.181000000    -3.399000000
O     3.870000000    -3.532000000     1.690000000
H     4.353000000    -3.670000000     0.875000000
H     4.486000000    -3.069000000     2.258000000
O     2.139000000    -5.922000000    -1.292000000
H     1.781000000    -5.934000000    -0.404000000
H     1.371000000    -5.964000000    -1.861000000
O    -3.146000000    -5.956000000    -3.624000000
H    -3.392000000    -6.876000000    -3.523000000
H    -2.752000000    -5.907000000    -4.495000000
O     6.732000000     2.215000000     1.109000000
H     7.674000000     2.339000000     1.225000000
H     6.588000000     2.339000000     0.171000000
O     4.645000000     2.922000000     2.639000000
H     5.278000000     2.612000000     1.992000000
H     4.531000000     2.182000000     3.236000000
O    -6.993000000    -0.322000000    -2.976000000
H    -7.288000000    -0.827000000    -3.734000000
H    -6.843000000    -0.977000000    -2.295000000
O     1.585000000     0.813000000    -2.915000000
H     1.075000000     0.660000000    -2.120000000
H     1.842000000    -0.061000000    -3.207000000
O    -0.041000000    -3.296000000    -3.552000000
H    -0.531000000    -3.404000000    -4.367000000
H    -0.382000000    -3.979000000    -2.975000000
O    -3.973000000     2.726000000    -1.083000000
H    -3.628000000     2.485000000    -1.943000000
H    -3.312000000     3.314000000    -0.716000000
O     5.665000000     2.751000000    -1.656000000
H     5.983000000     2.644000000    -2.552000000
H     4.856000000     3.255000000    -1.748000000
O    -0.904000000    -4.036000000     2.344000000
H    -1.673000000    -3.965000000     1.778000000
H    -0.338000000    -4.668000000     1.901000000
O    -5.090000000    -2.519000000     2.345000000
H    -5.183000000    -2.292000000     1.420000000
H    -4.278000000    -2.091000000     2.616000000
O     6.062000000    -0.204000000    -0.942000000
H     6.730000000    -0.045000000    -0.275000000
H     5.679000000     0.657000000    -1.108000000
O    -3.636000000     2.113000000     1.655000000
H    -3.415000000     3.043000000     1.694000000
H    -4.242000000     2.041000000     0.917000000
