161
-3033.95483
C     0.752000000     1.055000000     0.786000000
H     1.228000000     1.874000000     1.319000000
C     0.060000000     1.334000000    -0.391000000
H     0.110000000     2.286000000    -0.912000000
C    -0.555000000     0.287000000    -1.067000000
C    -1.371000000     0.429000000    -2.300000000
H    -2.409000000     0.148000000    -2.110000000
H    -1.362000000     1.466000000    -2.643000000
H    -1.087000000    -0.311000000    -3.051000000
C    -0.512000000    -1.045000000    -0.471000000
H    -1.014000000    -1.774000000    -1.103000000
C     0.120000000    -1.277000000     0.740000000
H     0.146000000    -2.312000000     1.069000000
C     0.812000000    -0.227000000     1.316000000
C     1.524000000    -0.530000000     2.565000000
O     1.615000000    -1.702000000     2.902000000
O     1.946000000     0.295000000     3.350000000
O    -1.565000000     3.272000000    -5.785000000
H    -0.769000000     2.795000000    -5.550000000
H    -1.813000000     2.917000000    -6.639000000
O     0.298000000     4.962000000     2.595000000
H    -0.289000000     5.617000000     2.217000000
H    -0.219000000     4.547000000     3.285000000
O    -2.255000000     5.809000000    -1.610000000
H    -2.956000000     5.427000000    -1.083000000
H    -2.427000000     5.497000000    -2.499000000
O    -3.093000000     4.767000000    -4.054000000
H    -3.771000000     5.111000000    -4.636000000
H    -2.567000000     4.193000000    -4.611000000
O     2.058000000    -3.432000000     6.947000000
H     1.329000000    -4.034000000     7.093000000
H     2.542000000    -3.437000000     7.773000000
O     1.186000000    -3.620000000    -5.825000000
H     0.345000000    -3.654000000    -5.370000000
H     1.243000000    -4.456000000    -6.287000000
O    -0.471000000    -1.366000000     7.117000000
H     0.365000000    -1.051000000     6.775000000
H    -0.824000000    -1.917000000     6.418000000
O     1.801000000     2.178000000    -4.242000000
H     1.235000000     2.865000000    -3.889000000
H     1.587000000     2.147000000    -5.174000000
O     4.118000000    -5.633000000     1.020000000
H     5.015000000    -5.336000000     0.864000000
H     3.582000000    -4.849000000     0.896000000
O     2.084000000    -1.029000000     6.004000000
H     2.038000000    -0.811000000     5.073000000
H     2.260000000    -1.970000000     6.021000000
O     1.404000000    -4.751000000     3.384000000
H     2.235000000    -4.292000000     3.262000000
H     0.928000000    -4.218000000     4.021000000
O    -5.613000000     1.522000000    -5.615000000
H    -6.196000000     2.244000000    -5.380000000
H    -5.392000000     1.112000000    -4.779000000
O     0.376000000     6.313000000    -1.687000000
H     0.084000000     7.039000000    -2.239000000
H    -0.427000000     5.982000000    -1.284000000
O     2.334000000    -1.624000000    -2.675000000
H     1.523000000    -1.239000000    -2.345000000
H     2.049000000    -2.248000000    -3.343000000
O     2.159000000     5.342000000     0.174000000
H     1.886000000     5.820000000     0.957000000
H     1.647000000     5.732000000    -0.536000000
O     2.439000000    -3.175000000     0.561000000
H     2.183000000    -2.918000000     1.447000000
H     2.431000000    -2.358000000     0.063000000
O    -3.354000000    -1.893000000     1.351000000
H    -2.813000000    -1.461000000     2.012000000
H    -2.787000000    -2.570000000     0.982000000
O    -2.173000000    -4.671000000    -2.450000000
H    -2.087000000    -5.621000000    -2.526000000
H    -1.664000000    -4.325000000    -3.183000000
O    -0.474000000    -2.698000000     4.171000000
H    -1.152000000    -2.023000000     4.171000000
H     0.221000000    -2.339000000     3.619000000
O     5.584000000     0.013000000     4.319000000
H     5.203000000    -0.623000000     4.924000000
H     4.901000000     0.161000000     3.665000000
O     3.250000000    -0.102000000     8.510000000
H     4.015000000    -0.603000000     8.793000000
H     3.065000000    -0.424000000     7.628000000
O     3.911000000    -2.719000000     3.818000000
H     4.055000000    -2.354000000     4.691000000
H     3.272000000    -2.131000000     3.415000000
O     3.724000000     3.218000000     0.190000000
H     3.709000000     2.669000000    -0.594000000
H     3.220000000     3.995000000    -0.052000000
O     3.028000000     2.607000000     7.753000000
H     2.916000000     2.584000000     6.803000000
H     3.125000000     1.689000000     8.006000000
O     6.478000000    -2.604000000     3.130000000
H     5.653000000    -2.880000000     3.527000000
H     6.730000000    -1.822000000     3.621000000
O    -5.353000000     2.941000000    -2.593000000
H    -4.699000000     3.603000000    -2.816000000
H    -6.176000000     3.293000000    -2.932000000
O     4.331000000     1.017000000     2.071000000
H     3.579000000     0.829000000     2.633000000
H     3.985000000     1.605000000     1.399000000
O    -2.505000000     2.162000000     1.138000000
H    -2.146000000     1.294000000     1.324000000
H    -1.850000000     2.577000000     0.577000000
O     2.636000000     2.374000000     5.071000000
H     2.788000000     2.673000000     4.174000000
H     2.339000000     1.469000000     4.975000000
O    -4.938000000     1.970000000    -0.002000000
H    -5.358000000     2.830000000    -0.025000000
H    -4.004000000     2.162000000     0.080000000
O     0.549000000     4.563000000    -3.792000000
H    -0.263000000     4.919000000    -4.153000000
H     0.672000000     5.035000000    -2.968000000
O    -4.645000000    -1.179000000    -0.776000000
H    -5.349000000    -1.827000000    -0.801000000
H    -4.209000000    -1.332000000     0.063000000
O     3.847000000     1.580000000    -1.912000000
H     3.742000000     0.639000000    -2.051000000
H     3.396000000     1.984000000    -2.654000000
O    -3.225000000    -3.958000000     4.135000000
H    -3.189000000    -4.875000000     4.407000000
H    -2.316000000    -3.731000000     3.935000000
O     0.490000000    -5.859000000     1.002000000
H     0.841000000    -5.512000000     1.822000000
H     1.211000000    -6.366000000     0.628000000
O    -2.711000000    -1.808000000    -7.459000000
H    -2.856000000    -1.152000000    -6.776000000
H    -3.516000000    -2.326000000    -7.468000000
O    -0.618000000     1.099000000     4.405000000
H     0.339000000     1.070000000     4.388000000
H    -0.828000000     1.669000000     5.144000000
O     2.933000000    -4.676000000    -1.861000000
H     3.307000000    -3.814000000    -1.681000000
H     2.358000000    -4.536000000    -2.613000000
O    -1.364000000    -3.515000000    -4.969000000
H    -1.625000000    -4.233000000    -5.545000000
H    -1.795000000    -2.743000000    -5.338000000
O    -2.944000000    -0.746000000    -5.108000000
H    -2.879000000    -0.179000000    -4.340000000
H    -3.757000000    -1.233000000    -4.978000000
O    -2.033000000    -4.163000000     0.140000000
H    -2.263000000    -4.454000000    -0.742000000
H    -1.426000000    -4.830000000     0.462000000
O    -7.193000000     0.909000000    -1.614000000
H    -6.605000000     1.521000000    -2.058000000
H    -6.707000000     0.630000000    -0.838000000
O     3.528000000     0.263000000    -5.395000000
H     3.924000000     1.133000000    -5.451000000
H     2.963000000     0.307000000    -4.623000000
O    -2.578000000    -0.612000000     3.666000000
H    -2.050000000     0.149000000     3.907000000
H    -3.331000000    -0.578000000     4.256000000
O    -4.859000000    -2.779000000    -4.513000000
H    -5.294000000    -3.410000000    -5.086000000
H    -5.254000000    -2.924000000    -3.653000000
O     2.894000000     3.795000000     2.751000000
H     3.061000000     3.579000000     1.834000000
H     1.981000000     4.081000000     2.768000000
O    -4.671000000     0.354000000    -3.078000000
H    -4.886000000     1.228000000    -2.752000000
H    -4.579000000    -0.180000000    -2.289000000
O     1.503000000    -1.012000000    -6.677000000
H     1.434000000    -1.897000000    -6.317000000
H     2.300000000    -0.656000000    -6.284000000
