161
-3075.26162
C    -0.653000000     1.192000000     0.592000000
H    -1.273000000     2.008000000     0.954000000
C    -0.881000000     0.693000000    -0.719000000
H    -1.617000000     1.139000000    -1.383000000
C    -0.223000000    -0.449000000    -1.145000000
C    -0.328000000    -0.918000000    -2.557000000
H     0.300000000    -0.270000000    -3.172000000
H     0.019000000    -1.933000000    -2.758000000
H    -1.382000000    -0.873000000    -2.839000000
C     0.683000000    -1.047000000    -0.289000000
H     1.273000000    -1.895000000    -0.628000000
C     0.920000000    -0.582000000     0.966000000
H     1.553000000    -1.155000000     1.639000000
C     0.226000000     0.524000000     1.451000000
C     0.454000000     1.063000000     2.885000000
O     0.735000000     0.301000000     3.815000000
O     0.193000000     2.195000000     3.195000000
O     0.629000000     2.946000000    -2.636000000
H    -0.081000000     2.347000000    -2.403000000
H     0.203000000     3.635000000    -3.146000000
O     1.890000000    -3.886000000    -3.073000000
H     1.003000000    -3.644000000    -2.805000000
H     2.279000000    -4.275000000    -2.290000000
O     3.310000000     0.443000000     6.642000000
H     4.049000000    -0.113000000     6.891000000
H     2.536000000    -0.079000000     6.854000000
O    -0.616000000     0.664000000     6.074000000
H    -0.010000000     0.644000000     5.333000000
H    -1.411000000     0.244000000     5.744000000
O    -6.224000000     0.370000000    -0.756000000
H    -5.433000000     0.831000000    -0.478000000
H    -5.954000000    -0.122000000    -1.532000000
O     0.467000000     0.573000000     8.580000000
H     0.047000000     0.395000000     7.738000000
H     0.324000000    -0.223000000     9.092000000
O    -3.985000000    -0.564000000     1.720000000
H    -4.148000000     0.140000000     1.093000000
H    -4.214000000    -0.187000000     2.569000000
O     5.379000000    -5.099000000    -0.194000000
H     4.851000000    -4.356000000     0.096000000
H     6.225000000    -4.975000000     0.238000000
O     3.779000000     4.221000000     0.975000000
H     2.841000000     4.302000000     0.802000000
H     4.087000000     3.584000000     0.330000000
O     3.631000000    -3.278000000     1.013000000
H     2.988000000    -3.666000000     0.420000000
H     3.260000000    -3.408000000     1.886000000
O     0.389000000    -5.189000000     3.682000000
H     0.822000000    -5.458000000     4.492000000
H     0.457000000    -4.234000000     3.679000000
O     3.205000000    -0.750000000    -7.409000000
H     3.074000000    -1.299000000    -8.183000000
H     2.897000000    -1.288000000    -6.679000000
O    -2.904000000    -0.744000000     5.094000000
H    -3.052000000    -1.358000000     4.375000000
H    -3.249000000    -1.193000000     5.866000000
O     4.419000000     3.936000000     3.734000000
H     3.974000000     4.030000000     2.892000000
H     3.941000000     3.238000000     4.181000000
O     0.835000000    -2.429000000     4.014000000
H     0.899000000    -1.474000000     4.003000000
H     0.317000000    -2.624000000     4.795000000
O     2.965000000     4.043000000    -4.121000000
H     2.091000000     4.103000000    -3.735000000
H     2.950000000     3.228000000    -4.622000000
O     2.401000000     5.522000000     5.482000000
H     2.312000000     6.092000000     4.718000000
H     2.223000000     4.643000000     5.147000000
O     4.879000000    -0.795000000     0.751000000
H     4.448000000    -0.131000000     1.289000000
H     4.255000000    -1.520000000     0.718000000
O    -1.301000000     5.059000000    -0.319000000
H    -2.074000000     5.193000000     0.229000000
H    -1.652000000     4.773000000    -1.162000000
O    -3.371000000     3.547000000     2.176000000
H    -3.674000000     4.410000000     1.893000000
H    -2.782000000     3.729000000     2.909000000
O     3.499000000    -0.051000000     3.124000000
H     4.118000000     0.217000000     3.803000000
H     2.641000000     0.016000000     3.543000000
O    -2.972000000     3.360000000    -2.128000000
H    -2.815000000     3.236000000    -3.064000000
H    -3.819000000     3.805000000    -2.084000000
O    -0.873000000     6.477000000     2.899000000
H    -1.777000000     6.734000000     3.077000000
H    -0.767000000     5.641000000     3.353000000
O    -1.281000000     4.568000000    -4.196000000
H    -1.605000000     3.964000000    -4.864000000
H    -1.377000000     5.435000000    -4.589000000
O    -3.780000000     1.041000000    -4.622000000
H    -4.576000000     1.566000000    -4.536000000
H    -3.991000000     0.213000000    -4.190000000
O     2.749000000     2.156000000    -0.750000000
H     2.381000000     2.475000000    -1.574000000
H     2.051000000     2.288000000    -0.109000000
O     2.901000000    -2.174000000    -5.003000000
H     2.532000000    -2.804000000    -4.383000000
H     2.925000000    -1.349000000    -4.518000000
O     1.996000000     2.598000000     5.267000000
H     2.247000000     1.810000000     5.748000000
H     1.467000000     2.276000000     4.537000000
O    -0.178000000    -3.228000000     6.357000000
H    -0.032000000    -2.546000000     7.013000000
H    -1.061000000    -3.550000000     6.540000000
O    -3.861000000    -3.077000000    -3.376000000
H    -2.935000000    -3.148000000    -3.605000000
H    -3.985000000    -3.720000000    -2.678000000
O    -6.019000000    -0.735000000    -3.329000000
H    -5.709000000    -1.640000000    -3.317000000
H    -6.944000000    -0.794000000    -3.089000000
O     0.068000000    -4.914000000    -6.051000000
H     0.658000000    -5.548000000    -5.644000000
H     0.213000000    -5.021000000    -6.991000000
O    -0.192000000     3.534000000     6.864000000
H     0.716000000     3.696000000     6.608000000
H    -0.311000000     2.592000000     6.741000000
O     3.483000000    -2.768000000     4.155000000
H     3.600000000    -1.862000000     3.871000000
H     2.547000000    -2.842000000     4.342000000
O    -1.518000000     4.040000000     4.152000000
H    -0.799000000     3.464000000     3.895000000
H    -1.704000000     3.800000000     5.060000000
O     3.846000000     0.226000000    -2.796000000
H     3.870000000     0.530000000    -1.889000000
H     4.458000000     0.800000000    -3.257000000
O    -0.878000000    -4.105000000    -1.631000000
H    -1.649000000    -4.052000000    -1.066000000
H    -1.187000000    -3.806000000    -2.486000000
O    -1.871000000    -1.122000000    -6.363000000
H    -1.123000000    -0.535000000    -6.474000000
H    -2.536000000    -0.584000000    -5.935000000
O    -4.883000000     0.937000000     3.873000000
H    -4.190000000     0.647000000     4.466000000
H    -4.674000000     1.853000000     3.689000000
O    -1.433000000    -3.091000000    -4.672000000
H    -0.767000000    -3.601000000    -5.133000000
H    -1.743000000    -2.459000000    -5.320000000
O    -2.159000000     2.738000000    -6.060000000
H    -2.672000000     2.170000000    -5.485000000
H    -2.675000000     2.793000000    -6.864000000
O    -2.453000000    -4.514000000     0.925000000
H    -1.845000000    -3.800000000     1.115000000
H    -2.555000000    -4.971000000     1.760000000
O     1.682000000    -4.724000000    -0.293000000
H     1.288000000    -5.381000000     0.281000000
H     0.962000000    -4.431000000    -0.851000000
O    -4.047000000     1.859000000     0.227000000
H    -3.863000000     2.493000000     0.920000000
H    -3.458000000     2.106000000    -0.486000000
O     2.248000000     1.475000000    -4.917000000
H     2.099000000     0.978000000    -4.113000000
H     1.616000000     1.118000000    -5.540000000
O    -1.723000000    -2.069000000     1.408000000
H    -2.551000000    -1.591000000     1.454000000
H    -1.113000000    -1.456000000     0.998000000
O     1.016000000     4.041000000     0.761000000
H     0.661000000     3.665000000     1.566000000
H     0.275000000     4.498000000     0.363000000
O     0.889000000     0.541000000    -7.048000000
H     1.768000000     0.501000000    -7.424000000
H     0.342000000     0.883000000    -7.755000000
