161
-3039.91572
C     0.355000000     1.306000000     0.570000000
H     0.713000000     2.276000000     0.903000000
C    -0.309000000     1.091000000    -0.653000000
H    -0.606000000     1.936000000    -1.268000000
C    -0.597000000    -0.174000000    -1.102000000
C    -1.110000000    -0.436000000    -2.483000000
H    -1.307000000    -1.475000000    -2.755000000
H    -2.061000000     0.096000000    -2.408000000
H    -0.428000000     0.077000000    -3.163000000
C    -0.286000000    -1.229000000    -0.251000000
H    -0.548000000    -2.211000000    -0.636000000
C     0.264000000    -1.051000000     1.038000000
H     0.201000000    -1.852000000     1.770000000
C     0.637000000     0.229000000     1.442000000
C     1.486000000     0.426000000     2.688000000
O     1.877000000    -0.566000000     3.233000000
O     1.717000000     1.564000000     3.082000000
O    -1.316000000     3.777000000    -2.544000000
H    -2.254000000     3.584000000    -2.541000000
H    -1.132000000     4.055000000    -3.441000000
O     3.650000000     4.180000000     5.899000000
H     2.763000000     3.887000000     6.107000000
H     4.108000000     4.174000000     6.740000000
O     1.711000000    -4.502000000    -2.881000000
H     1.627000000    -3.719000000    -2.336000000
H     2.070000000    -5.166000000    -2.293000000
O     3.859000000     0.720000000     5.766000000
H     3.343000000    -0.046000000     6.019000000
H     3.653000000     0.852000000     4.840000000
O    -1.243000000    -0.508000000     4.467000000
H    -1.558000000    -0.890000000     3.647000000
H    -1.999000000    -0.539000000     5.052000000
O    -4.674000000    -4.169000000     0.115000000
H    -5.430000000    -3.607000000     0.287000000
H    -3.960000000    -3.768000000     0.612000000
O    -6.929000000     0.120000000    -1.377000000
H    -6.446000000     0.926000000    -1.193000000
H    -6.519000000    -0.231000000    -2.167000000
O     2.628000000     4.297000000     0.588000000
H     1.671000000     4.314000000     0.577000000
H     2.854000000     4.088000000     1.494000000
O    -0.015000000     1.120000000     8.310000000
H     0.258000000     1.188000000     7.395000000
H    -0.008000000     0.180000000     8.492000000
O    -3.098000000    -0.686000000     1.877000000
H    -2.823000000    -0.018000000     1.249000000
H    -4.040000000    -0.777000000     1.732000000
O     4.476000000     2.670000000    -0.978000000
H     5.199000000     3.250000000    -1.218000000
H     3.790000000     3.260000000    -0.666000000
O     3.388000000    -4.132000000     2.294000000
H     2.570000000    -4.513000000     1.975000000
H     3.333000000    -4.208000000     3.246000000
O     3.287000000    -4.880000000     4.834000000
H     2.544000000    -4.843000000     5.437000000
H     3.747000000    -4.052000000     4.969000000
O     2.438000000    -1.313000000    -6.851000000
H     2.102000000    -1.506000000    -7.726000000
H     1.990000000    -1.937000000    -6.279000000
O    -2.811000000    -3.952000000     3.867000000
H    -3.094000000    -4.862000000     3.778000000
H    -2.412000000    -3.742000000     3.023000000
O     6.495000000    -0.522000000     2.579000000
H     6.721000000    -1.140000000     3.274000000
H     5.666000000    -0.847000000     2.229000000
O     5.854000000     2.517000000     2.433000000
H     4.924000000     2.735000000     2.371000000
H     5.883000000     1.756000000     3.013000000
O     2.276000000    -1.623000000     5.620000000
H     1.863000000    -1.254000000     4.839000000
H     1.544000000    -1.898000000     6.171000000
O     2.792000000    -1.964000000    -2.170000000
H     3.117000000    -1.331000000    -2.810000000
H     2.761000000    -1.477000000    -1.346000000
O    -2.800000000     4.306000000     0.274000000
H    -3.438000000     4.920000000     0.639000000
H    -2.588000000     4.666000000    -0.588000000
O    -3.053000000     3.082000000     2.921000000
H    -3.620000000     3.440000000     2.237000000
H    -2.921000000     3.809000000     3.529000000
O     3.494000000     0.147000000    -0.320000000
H     3.897000000     1.010000000    -0.415000000
H     3.791000000    -0.164000000     0.535000000
O    -3.919000000     3.107000000    -3.158000000
H    -4.381000000     3.579000000    -3.851000000
H    -3.729000000     2.249000000    -3.538000000
O    -0.082000000     6.396000000     2.273000000
H    -0.217000000     6.413000000     3.221000000
H    -0.216000000     5.481000000     2.028000000
O     2.195000000     1.002000000    -2.369000000
H     1.261000000     0.869000000    -2.206000000
H     2.629000000     0.600000000    -1.617000000
O     3.070000000     3.764000000     3.312000000
H     2.568000000     2.948000000     3.306000000
H     3.393000000     3.839000000     4.210000000
O     3.439000000     6.244000000    -1.226000000
H     3.161000000     5.863000000    -0.394000000
H     4.163000000     5.687000000    -1.514000000
O     0.235000000    -2.649000000     7.078000000
H    -0.027000000    -2.247000000     7.906000000
H    -0.424000000    -3.325000000     6.921000000
O    -2.539000000    -2.926000000    -5.246000000
H    -2.445000000    -1.982000000    -5.117000000
H    -1.992000000    -3.316000000    -4.563000000
O    -5.535000000    -0.835000000    -3.335000000
H    -4.748000000    -0.370000000    -3.621000000
H    -5.771000000    -1.388000000    -4.080000000
O     0.812000000     6.012000000     4.864000000
H     1.057000000     5.464000000     5.609000000
H     0.898000000     5.436000000     4.104000000
O     0.414000000     1.433000000     5.435000000
H    -0.168000000     0.683000000     5.306000000
H     0.984000000     1.428000000     4.666000000
O    -1.851000000     0.205000000    -7.706000000
H    -1.452000000     0.694000000    -6.986000000
H    -2.030000000     0.866000000    -8.375000000
O     4.840000000    -2.525000000     4.786000000
H     5.269000000    -2.354000000     5.625000000
H     3.949000000    -2.196000000     4.902000000
O    -0.262000000     3.679000000     3.183000000
H    -1.123000000     3.262000000     3.209000000
H     0.348000000     2.958000000     3.024000000
O     3.790000000     2.950000000    -4.053000000
H     3.359000000     2.725000000    -3.228000000
H     4.312000000     2.177000000    -4.269000000
O    -0.836000000    -4.988000000    -0.863000000
H    -0.555000000    -5.891000000    -1.016000000
H    -0.942000000    -4.619000000    -1.740000000
O    -3.388000000     0.866000000    -4.469000000
H    -2.460000000     0.821000000    -4.698000000
H    -3.830000000     1.062000000    -5.295000000
O    -0.803000000    -4.188000000    -3.714000000
H    -0.742000000    -4.861000000    -4.392000000
H     0.107000000    -3.972000000    -3.509000000
O    -3.053000000    -6.508000000     1.080000000
H    -3.169000000    -6.250000000     1.995000000
H    -3.190000000    -5.701000000     0.584000000
O     1.029000000     3.929000000     6.569000000
H     0.647000000     3.114000000     6.242000000
H     0.771000000     3.961000000     7.490000000
O     0.985000000    -5.301000000     1.227000000
H     0.559000000    -6.027000000     1.682000000
H     0.404000000    -5.105000000     0.492000000
O    -5.794000000     2.750000000    -0.764000000
H    -5.891000000     3.612000000    -0.361000000
H    -4.977000000     2.808000000    -1.260000000
O     1.650000000     0.890000000    -5.443000000
H     2.352000000     1.252000000    -4.902000000
H     2.009000000     0.071000000    -5.784000000
O     3.956000000    -1.467000000     2.015000000
H     3.181000000    -1.142000000     2.473000000
H     3.838000000    -2.416000000     1.986000000
O    -1.742000000    -3.488000000     1.475000000
H    -1.781000000    -2.568000000     1.212000000
H    -1.242000000    -3.915000000     0.779000000
O    -0.119000000     4.599000000    -0.018000000
H    -0.378000000     4.304000000    -0.891000000
H    -0.916000000     4.523000000     0.506000000
O    -0.940000000     1.482000000    -5.199000000
H    -1.015000000     2.436000000    -5.177000000
H     0.002000000     1.317000000    -5.253000000
