161
-3031.07811
C     0.355000000     1.337000000     0.609000000
H     0.660000000     2.310000000     0.984000000
C    -0.594000000     1.198000000    -0.426000000
H    -1.155000000     2.075000000    -0.737000000
C    -0.862000000    -0.131000000    -0.888000000
C    -1.959000000    -0.363000000    -1.961000000
H    -2.077000000    -1.443000000    -1.856000000
H    -2.969000000     0.043000000    -1.876000000
H    -1.459000000    -0.158000000    -2.910000000
C    -0.100000000    -1.138000000    -0.355000000
H    -0.383000000    -2.127000000    -0.706000000
C     0.835000000    -1.020000000     0.599000000
H     1.422000000    -1.877000000     0.921000000
C     1.021000000     0.231000000     1.153000000
C     2.115000000     0.309000000     2.201000000
O     2.827000000    -0.597000000     2.504000000
O     2.331000000     1.349000000     2.739000000
O    -4.288000000     0.854000000    -5.385000000
H    -3.745000000     1.443000000    -4.861000000
H    -3.710000000     0.120000000    -5.596000000
O    -3.868000000     0.199000000     2.313000000
H    -4.316000000     1.034000000     2.172000000
H    -3.167000000     0.191000000     1.661000000
O     5.437000000    -0.004000000     3.824000000
H     4.818000000     0.071000000     4.550000000
H     4.896000000    -0.240000000     3.070000000
O     1.720000000    -2.498000000     3.851000000
H     1.838000000    -2.177000000     4.745000000
H     2.025000000    -1.779000000     3.297000000
O     0.839000000    -6.938000000    -1.793000000
H     0.996000000    -7.538000000    -2.522000000
H     0.944000000    -6.066000000    -2.174000000
O    -0.796000000    -5.432000000     2.261000000
H    -0.760000000    -4.807000000     2.985000000
H    -1.433000000    -5.058000000     1.652000000
O     0.977000000     3.221000000    -3.370000000
H     0.829000000     4.127000000    -3.641000000
H     0.410000000     2.704000000    -3.943000000
O     5.013000000     1.093000000    -1.947000000
H     4.923000000     0.241000000    -1.520000000
H     5.348000000     0.889000000    -2.820000000
O    -2.650000000    -1.377000000    -5.715000000
H    -2.373000000    -2.135000000    -5.200000000
H    -1.865000000    -1.117000000    -6.198000000
O    -0.524000000     1.556000000    -4.883000000
H    -1.367000000     1.741000000    -4.471000000
H    -0.748000000     1.090000000    -5.689000000
O     6.354000000     3.958000000     3.510000000
H     5.554000000     3.789000000     3.012000000
H     6.904000000     3.192000000     3.348000000
O     5.918000000    -4.908000000     2.099000000
H     5.447000000    -5.733000000     1.985000000
H     5.275000000    -4.233000000     1.883000000
O    -0.052000000    -4.288000000    -2.586000000
H     0.198000000    -3.903000000    -3.426000000
H    -0.975000000    -4.517000000    -2.693000000
O    -4.723000000    -2.291000000    -3.156000000
H    -4.918000000    -1.550000000    -2.582000000
H    -4.643000000    -1.905000000    -4.028000000
O     3.226000000     3.530000000    -1.898000000
H     3.639000000     2.667000000    -1.863000000
H     2.291000000     3.345000000    -1.990000000
O     4.301000000    -0.966000000    -0.288000000
H     3.345000000    -0.916000000    -0.301000000
H     4.497000000    -1.629000000     0.375000000
O     3.136000000     0.566000000     5.305000000
H     3.115000000     1.197000000     6.025000000
H     2.969000000     1.090000000     4.522000000
O     4.041000000    -3.091000000     1.745000000
H     3.490000000    -3.405000000     1.028000000
H     3.491000000    -2.463000000     2.213000000
O     1.771000000    -5.872000000     1.242000000
H     0.816000000    -5.930000000     1.262000000
H     1.956000000    -5.173000000     0.614000000
O     7.983000000    -1.999000000     3.071000000
H     8.038000000    -2.856000000     2.650000000
H     7.047000000    -1.797000000     3.082000000
O     3.853000000     3.416000000     2.072000000
H     3.527000000     2.580000000     2.406000000
H     3.489000000     3.479000000     1.189000000
O    -0.922000000     0.488000000    -7.397000000
H     0.024000000     0.360000000    -7.460000000
H    -1.120000000     1.144000000    -8.065000000
O    -4.643000000     2.345000000    -1.270000000
H    -5.144000000     3.154000000    -1.372000000
H    -4.420000000     2.316000000    -0.340000000
O     0.428000000     3.056000000     3.742000000
H     0.393000000     3.876000000     3.250000000
H     1.051000000     2.513000000     3.260000000
O    -2.277000000     6.034000000     1.528000000
H    -1.403000000     5.801000000     1.216000000
H    -2.860000000     5.791000000     0.808000000
O    -2.982000000    -4.270000000    -2.728000000
H    -2.810000000    -4.398000000    -3.661000000
H    -3.696000000    -3.634000000    -2.701000000
O     3.470000000    -2.581000000    -3.061000000
H     3.123000000    -1.692000000    -2.991000000
H     4.231000000    -2.496000000    -3.636000000
O     2.294000000     0.019000000    -3.105000000
H     1.548000000     0.615000000    -3.044000000
H     2.993000000     0.550000000    -3.489000000
O    -3.433000000     2.965000000     1.563000000
H    -3.923000000     3.653000000     2.015000000
H    -2.525000000     3.101000000     1.834000000
O     2.276000000    -3.807000000    -1.005000000
H     2.864000000    -3.465000000    -1.678000000
H     1.398000000    -3.597000000    -1.324000000
O    -4.237000000    -2.376000000     0.344000000
H    -4.619000000    -1.941000000     1.106000000
H    -4.391000000    -1.770000000    -0.380000000
O    -6.584000000    -4.242000000    -1.471000000
H    -5.930000000    -3.895000000    -0.864000000
H    -7.295000000    -3.601000000    -1.450000000
O    -5.287000000    -0.472000000    -1.184000000
H    -6.240000000    -0.475000000    -1.275000000
H    -5.041000000     0.449000000    -1.264000000
O     7.773000000     1.552000000     3.482000000
H     6.950000000     1.093000000     3.646000000
H     8.093000000     1.184000000     2.658000000
O    -2.867000000     2.776000000    -3.573000000
H    -2.986000000     2.627000000    -2.636000000
H    -3.281000000     3.624000000    -3.736000000
O    -1.786000000    -4.254000000    -5.348000000
H    -1.827000000    -5.152000000    -5.675000000
H    -0.868000000    -4.003000000    -5.450000000
O    -2.645000000    -4.640000000     0.155000000
H    -2.663000000    -4.731000000    -0.798000000
H    -3.282000000    -3.951000000     0.342000000
O     0.800000000     5.507000000     1.941000000
H     1.574000000     5.425000000     2.499000000
H     0.774000000     6.434000000     1.704000000
O     0.645000000    -2.709000000    -4.637000000
H     1.328000000    -2.308000000    -4.099000000
H     0.763000000    -2.320000000    -5.503000000
O    -6.568000000     1.424000000    -3.910000000
H    -6.624000000     2.312000000    -4.264000000
H    -5.648000000     1.181000000    -4.016000000
O    -2.068000000     3.404000000     4.968000000
H    -2.138000000     4.327000000     5.210000000
H    -1.228000000     3.338000000     4.515000000
O    -1.482000000     5.028000000    -2.123000000
H    -0.793000000     5.512000000    -2.577000000
H    -1.108000000     4.159000000    -1.976000000
O     3.218000000     5.549000000     3.468000000
H     3.251000000     5.237000000     4.372000000
H     3.566000000     4.823000000     2.951000000
O     2.787000000    -5.311000000     3.990000000
H     2.597000000    -5.661000000     3.120000000
H     2.800000000    -4.362000000     3.868000000
O    -0.801000000    -3.605000000     4.489000000
H    -1.218000000    -2.760000000     4.659000000
H     0.131000000    -3.402000000     4.417000000
O     0.560000000     2.648000000     6.435000000
H    -0.177000000     3.248000000     6.543000000
H     0.686000000     2.590000000     5.488000000
O    -3.821000000     5.989000000    -0.811000000
H    -3.002000000     5.988000000    -1.307000000
H    -4.446000000     5.541000000    -1.381000000
O     1.957000000    -1.796000000     6.460000000
H     2.404000000    -1.064000000     6.036000000
H     1.394000000    -1.386000000     7.117000000
