161
-3026.04127
C     0.585000000     0.959000000     0.979000000
H     1.048000000     1.687000000     1.640000000
C     0.643000000     1.148000000    -0.412000000
H     1.150000000     1.962000000    -0.923000000
C     0.039000000     0.142000000    -1.177000000
C    -0.129000000     0.373000000    -2.700000000
H     0.613000000     1.067000000    -3.100000000
H     0.114000000    -0.550000000    -3.230000000
H    -1.114000000     0.769000000    -2.956000000
C    -0.476000000    -0.998000000    -0.609000000
H    -0.736000000    -1.806000000    -1.288000000
C    -0.470000000    -1.238000000     0.760000000
H    -0.969000000    -2.136000000     1.115000000
C     0.046000000    -0.197000000     1.568000000
C    -0.020000000    -0.377000000     3.036000000
O    -0.495000000    -1.408000000     3.533000000
O     0.179000000     0.598000000     3.763000000
O    -1.121000000    -0.667000000    -6.938000000
H    -1.132000000     0.212000000    -6.559000000
H    -0.260000000    -1.016000000    -6.709000000
O     0.321000000    -1.704000000     6.305000000
H     0.253000000    -1.524000000     5.367000000
H     1.070000000    -1.183000000     6.595000000
O    -1.653000000     1.902000000    -6.363000000
H    -0.995000000     2.480000000    -5.978000000
H    -2.446000000     2.437000000    -6.406000000
O    -3.482000000    -2.970000000    -2.363000000
H    -3.103000000    -3.806000000    -2.636000000
H    -4.424000000    -3.083000000    -2.486000000
O    -5.133000000    -0.716000000     3.296000000
H    -4.558000000    -1.363000000     3.706000000
H    -4.538000000    -0.129000000     2.830000000
O     1.159000000     5.148000000     2.817000000
H     0.517000000     4.513000000     2.500000000
H     0.675000000     5.972000000     2.873000000
O     4.261000000     2.976000000     2.844000000
H     4.940000000     3.651000000     2.859000000
H     4.686000000     2.200000000     3.208000000
O     3.832000000     3.602000000     6.386000000
H     3.976000000     4.275000000     5.720000000
H     3.220000000     2.989000000     5.979000000
O     3.149000000     2.565000000    -6.844000000
H     2.270000000     2.371000000    -6.518000000
H     3.117000000     3.492000000    -7.083000000
O     2.607000000    -0.111000000     6.194000000
H     3.191000000    -0.618000000     5.630000000
H     2.569000000     0.753000000     5.784000000
O     2.387000000     2.039000000     4.601000000
H     2.860000000     2.312000000     3.815000000
H     1.813000000     1.333000000     4.302000000
O    -3.329000000    -1.245000000     6.512000000
H    -3.232000000    -1.469000000     5.587000000
H    -3.481000000    -2.084000000     6.947000000
O    -3.236000000     2.376000000     6.891000000
H    -3.228000000     1.950000000     7.748000000
H    -2.471000000     2.019000000     6.439000000
O    -1.157000000     3.030000000     3.600000000
H    -0.768000000     2.186000000     3.830000000
H    -0.778000000     3.647000000     4.226000000
O    -2.821000000    -2.160000000     3.941000000
H    -1.931000000    -1.901000000     3.701000000
H    -3.011000000    -2.912000000     3.381000000
O     0.178000000    -6.072000000     2.338000000
H    -0.754000000    -5.935000000     2.169000000
H     0.205000000    -6.797000000     2.962000000
O    -0.977000000     0.741000000     6.171000000
H    -0.649000000     0.712000000     5.273000000
H    -1.381000000    -0.116000000     6.308000000
O    -4.267000000     2.317000000    -3.415000000
H    -3.462000000     2.733000000    -3.107000000
H    -4.236000000     1.434000000    -3.046000000
O    -4.437000000    -5.234000000     0.719000000
H    -3.899000000    -5.345000000     1.503000000
H    -4.665000000    -4.304000000     0.715000000
O     1.909000000    -4.809000000    -2.735000000
H     1.937000000    -4.108000000    -2.084000000
H     2.827000000    -5.029000000    -2.891000000
O    -3.070000000    -5.729000000    -2.211000000
H    -2.206000000    -5.746000000    -2.622000000
H    -3.014000000    -6.378000000    -1.510000000
O     5.525000000     5.283000000    -0.535000000
H     5.371000000     5.863000000     0.211000000
H     4.703000000     4.803000000    -0.638000000
O     0.169000000    -3.877000000     7.884000000
H    -0.783000000    -3.926000000     7.801000000
H     0.414000000    -3.100000000     7.381000000
O    -4.291000000     3.178000000    -5.928000000
H    -5.003000000     2.827000000    -6.463000000
H    -4.400000000     2.756000000    -5.076000000
O    -5.278000000    -0.773000000    -4.254000000
H    -4.404000000    -0.915000000    -4.618000000
H    -5.337000000    -1.389000000    -3.524000000
O     5.152000000     1.834000000    -1.409000000
H     5.795000000     1.295000000    -1.869000000
H     4.822000000     2.436000000    -2.077000000
O     0.558000000     3.376000000    -5.627000000
H     0.440000000     3.448000000    -4.679000000
H     0.612000000     4.282000000    -5.931000000
O    -3.656000000     4.447000000     1.259000000
H    -3.712000000     5.141000000     0.602000000
H    -2.723000000     4.241000000     1.311000000
O     3.526000000    -1.355000000    -5.320000000
H     3.964000000    -0.505000000    -5.333000000
H     4.238000000    -1.990000000    -5.240000000
O    -4.252000000    -0.416000000    -0.538000000
H    -3.507000000    -0.002000000    -0.103000000
H    -3.861000000    -0.933000000    -1.242000000
O    -0.847000000     4.539000000     1.037000000
H    -0.473000000     3.701000000     0.762000000
H    -0.401000000     5.190000000     0.495000000
O    -4.920000000    -2.559000000     1.114000000
H    -4.604000000    -1.873000000     0.526000000
H    -5.370000000    -2.085000000     1.813000000
O     3.506000000    -0.610000000    -0.555000000
H     2.739000000    -0.139000000    -0.881000000
H     4.214000000     0.033000000    -0.588000000
O    -3.198000000    -5.290000000     3.434000000
H    -3.497000000    -6.088000000     3.872000000
H    -2.356000000    -5.093000000     3.845000000
O    -1.653000000     3.431000000    -2.147000000
H    -0.701000000     3.477000000    -2.234000000
H    -1.950000000     4.328000000    -2.300000000
O     1.850000000    -2.924000000     2.079000000
H     2.505000000    -2.960000000     2.776000000
H     1.025000000    -2.756000000     2.535000000
O    -2.462000000    -4.285000000     6.817000000
H    -2.170000000    -4.810000000     6.072000000
H    -3.319000000    -3.950000000     6.554000000
O     2.677000000     5.699000000    -1.011000000
H     2.973000000     4.839000000    -0.713000000
H     1.883000000     5.868000000    -0.504000000
O     3.296000000     3.663000000    -3.977000000
H     2.912000000     3.350000000    -4.796000000
H     4.239000000     3.663000000    -4.139000000
O    -3.981000000     1.688000000     2.376000000
H    -3.965000000     2.210000000     1.574000000
H    -3.235000000     2.006000000     2.884000000
O     3.274000000     3.426000000     0.240000000
H     3.982000000     3.006000000    -0.247000000
H     3.401000000     3.137000000     1.144000000
O    -2.322000000     1.625000000    -0.018000000
H    -2.120000000     2.359000000    -0.599000000
H    -1.525000000     1.500000000     0.496000000
O    -0.535000000    -5.834000000    -3.448000000
H    -0.198000000    -6.434000000    -4.114000000
H     0.159000000    -5.183000000    -3.339000000
O     2.632000000    -3.146000000    -0.550000000
H     2.955000000    -2.270000000    -0.761000000
H     2.037000000    -3.011000000     0.187000000
O     0.963000000     4.067000000    -2.645000000
H     1.004000000     5.020000000    -2.563000000
H     1.803000000     3.823000000    -3.033000000
O     0.860000000     1.902000000     8.249000000
H     0.576000000     1.700000000     7.358000000
H     1.068000000     1.050000000     8.633000000
O    -2.814000000    -2.078000000    -5.371000000
H    -2.406000000    -1.441000000    -5.958000000
H    -2.082000000    -2.459000000    -4.885000000
O    -0.914000000    -4.315000000     4.425000000
H    -0.595000000    -3.434000000     4.619000000
H    -0.138000000    -4.791000000     4.129000000
