161
-3017.35571
C     0.899000000     1.055000000     0.586000000
H     1.567000000     1.862000000     0.877000000
C     0.866000000     0.665000000    -0.728000000
H     1.492000000     1.145000000    -1.476000000
C    -0.097000000    -0.286000000    -1.169000000
C    -0.286000000    -0.502000000    -2.675000000
H     0.689000000    -0.545000000    -3.165000000
H    -0.786000000    -1.453000000    -2.870000000
H    -0.826000000     0.373000000    -3.045000000
C    -0.882000000    -0.926000000    -0.241000000
H    -1.463000000    -1.760000000    -0.627000000
C    -0.706000000    -0.726000000     1.088000000
H    -1.254000000    -1.280000000     1.846000000
C     0.218000000     0.277000000     1.514000000
C     0.211000000     0.545000000     2.977000000
O    -0.835000000     0.458000000     3.637000000
O     1.188000000     1.099000000     3.474000000
O     3.703000000    -1.393000000    -5.810000000
H     4.028000000    -0.648000000    -6.314000000
H     4.045000000    -1.252000000    -4.927000000
O    -0.588000000    -1.176000000    -6.552000000
H    -0.069000000    -0.376000000    -6.462000000
H     0.020000000    -1.815000000    -6.923000000
O     1.307000000     0.799000000    -6.563000000
H     1.842000000     1.309000000    -5.955000000
H     1.837000000     0.738000000    -7.357000000
O    -2.019000000    -4.507000000     0.450000000
H    -2.045000000    -5.078000000    -0.318000000
H    -2.886000000    -4.104000000     0.478000000
O    -5.325000000    -3.869000000    -3.824000000
H    -5.310000000    -4.758000000    -3.471000000
H    -5.022000000    -3.319000000    -3.101000000
O    -1.592000000    -4.800000000     5.019000000
H    -1.554000000    -3.844000000     4.984000000
H    -0.721000000    -5.063000000     5.316000000
O    -5.206000000     1.446000000     2.770000000
H    -4.355000000     1.816000000     3.002000000
H    -5.837000000     2.122000000     3.018000000
O     2.581000000     6.673000000     2.501000000
H     2.275000000     5.904000000     2.983000000
H     1.785000000     7.169000000     2.311000000
O     3.100000000    -4.739000000    -2.288000000
H     2.596000000    -4.361000000    -3.009000000
H     2.468000000    -4.829000000    -1.575000000
O     2.767000000     5.436000000    -0.445000000
H     2.706000000     6.151000000     0.189000000
H     2.247000000     5.733000000    -1.192000000
O    -2.479000000     4.076000000    -4.345000000
H    -2.633000000     3.762000000    -5.236000000
H    -1.567000000     4.367000000    -4.348000000
O    -2.727000000     2.519000000     8.385000000
H    -2.151000000     1.923000000     7.907000000
H    -3.149000000     3.043000000     7.703000000
O     4.283000000     0.870000000     3.509000000
H     4.534000000     1.500000000     2.834000000
H     3.390000000     0.615000000     3.278000000
O    -3.421000000     0.296000000     4.961000000
H    -2.794000000     0.270000000     4.237000000
H    -4.013000000    -0.437000000     4.791000000
O     0.193000000     4.259000000     6.049000000
H     0.526000000     4.060000000     5.174000000
H    -0.001000000     3.404000000     6.432000000
O     1.580000000     3.556000000     3.830000000
H     1.450000000     2.609000000     3.876000000
H     2.295000000     3.670000000     3.204000000
O    -1.122000000    -2.137000000     4.421000000
H    -1.017000000    -1.260000000     4.050000000
H    -1.874000000    -2.505000000     3.958000000
O     1.200000000    -4.710000000    -0.016000000
H     0.244000000    -4.756000000    -0.013000000
H     1.394000000    -3.778000000    -0.113000000
O     2.683000000     0.271000000     5.975000000
H     2.062000000     0.709000000     5.393000000
H     3.178000000    -0.313000000     5.401000000
O    -5.093000000     1.694000000    -2.926000000
H    -4.706000000     0.939000000    -3.369000000
H    -4.343000000     2.176000000    -2.576000000
O    -4.218000000    -3.059000000     0.506000000
H    -5.097000000    -3.310000000     0.790000000
H    -4.358000000    -2.585000000    -0.314000000
O    -1.086000000     1.681000000     6.116000000
H    -1.923000000     1.789000000     5.665000000
H    -0.529000000     1.228000000     5.483000000
O     0.068000000    -2.237000000     6.860000000
H     1.003000000    -2.049000000     6.944000000
H    -0.135000000    -2.039000000     5.946000000
O    -2.944000000     0.186000000    -6.621000000
H    -3.151000000    -0.084000000    -5.726000000
H    -2.079000000    -0.188000000    -6.790000000
O    -4.466000000    -0.751000000    -4.420000000
H    -4.599000000    -1.319000000    -3.661000000
H    -5.330000000    -0.376000000    -4.593000000
O     2.928000000     2.468000000    -5.081000000
H     3.216000000     3.166000000    -4.493000000
H     3.167000000     1.659000000    -4.628000000
O     4.059000000     1.716000000    -2.314000000
H     4.321000000     1.705000000    -1.394000000
H     4.725000000     2.249000000    -2.747000000
O    -4.357000000     3.351000000    -0.114000000
H    -3.916000000     3.481000000    -0.954000000
H    -4.065000000     2.488000000     0.179000000
O    -3.553000000     0.506000000    -0.717000000
H    -2.853000000     0.084000000    -0.218000000
H    -3.100000000     1.128000000    -1.287000000
O    -0.569000000     3.954000000    -1.111000000
H     0.315000000     3.679000000    -1.354000000
H    -0.649000000     4.841000000    -1.463000000
O     4.679000000    -0.710000000    -3.411000000
H     5.577000000    -0.752000000    -3.081000000
H     4.337000000     0.117000000    -3.071000000
O    -4.938000000    -1.722000000    -1.798000000
H    -4.763000000    -0.861000000    -1.419000000
H    -5.870000000    -1.704000000    -2.013000000
O     2.461000000    -2.247000000     0.408000000
H     3.411000000    -2.172000000     0.311000000
H     2.144000000    -1.345000000     0.359000000
O    -3.368000000    -2.550000000     3.159000000
H    -3.622000000    -2.884000000     2.299000000
H    -4.174000000    -2.580000000     3.675000000
O    -3.642000000     3.874000000     5.841000000
H    -3.266000000     3.746000000     4.970000000
H    -3.375000000     4.758000000     6.090000000
O    -2.573000000     2.590000000    -2.173000000
H    -2.479000000     2.890000000    -3.077000000
H    -1.865000000     3.028000000    -1.701000000
O     3.271000000    -3.700000000     2.608000000
H     2.670000000    -3.238000000     2.023000000
H     3.223000000    -4.614000000     2.327000000
O     1.697000000    -2.956000000    -7.307000000
H     2.281000000    -2.366000000    -6.830000000
H     2.162000000    -3.146000000    -8.122000000
O     4.872000000     1.344000000     7.089000000
H     3.981000000     1.187000000     6.774000000
H     5.435000000     0.994000000     6.398000000
O     2.258000000    -3.086000000    -4.171000000
H     1.463000000    -2.720000000    -4.558000000
H     2.972000000    -2.686000000    -4.666000000
O    -2.454000000    -0.710000000     7.533000000
H    -2.763000000    -0.505000000     6.650000000
H    -1.595000000    -1.109000000     7.399000000
O     3.221000000     3.638000000     1.844000000
H     2.913000000     4.043000000     1.033000000
H     4.175000000     3.693000000     1.792000000
O    -2.519000000     2.545000000     3.224000000
H    -2.071000000     3.135000000     2.618000000
H    -1.885000000     1.847000000     3.391000000
O     5.346000000     1.668000000     0.128000000
H     6.039000000     1.096000000     0.457000000
H     5.540000000     2.524000000     0.511000000
O    -0.648000000     3.874000000     1.692000000
H    -0.493000000     3.793000000     0.751000000
H     0.165000000     3.571000000     2.096000000
O     2.829000000     4.981000000    -3.527000000
H     3.198000000     5.853000000    -3.384000000
H     3.376000000     4.400000000    -2.999000000
O    -6.292000000     0.177000000     0.515000000
H    -5.375000000     0.111000000     0.248000000
H    -6.284000000     0.796000000     1.245000000
O     3.931000000    -1.962000000     4.715000000
H     4.635000000    -1.522000000     4.239000000
H     3.666000000    -2.681000000     4.142000000
