161
-2995.04576
C     1.273000000     0.038000000     0.821000000
H     2.135000000    -0.186000000     1.444000000
C     1.190000000    -0.063000000    -0.614000000
H     2.127000000    -0.202000000    -1.147000000
C    -0.039000000    -0.133000000    -1.218000000
C    -0.108000000    -0.350000000    -2.720000000
H    -1.024000000     0.101000000    -3.108000000
H     0.714000000    -0.076000000    -3.385000000
H    -0.239000000    -1.411000000    -2.940000000
C    -1.197000000     0.028000000    -0.484000000
H    -2.147000000    -0.043000000    -1.008000000
C    -1.118000000     0.262000000     0.884000000
H    -2.089000000     0.441000000     1.341000000
C     0.100000000     0.244000000     1.594000000
C     0.144000000     0.407000000     3.115000000
O    -0.892000000     0.333000000     3.729000000
O     1.162000000     0.602000000     3.690000000
O     2.475000000    -0.486000000    -6.215000000
H     2.380000000    -1.213000000    -5.600000000
H     1.617000000    -0.061000000    -6.218000000
O    -0.971000000     4.940000000     0.997000000
H    -1.221000000     4.215000000     0.425000000
H    -0.312000000     4.567000000     1.582000000
O     0.101000000     0.752000000    -5.906000000
H    -0.805000000     0.869000000    -5.622000000
H     0.570000000     1.493000000    -5.523000000
O    -2.394000000     2.702000000    -6.426000000
H    -2.171000000     3.248000000    -7.180000000
H    -1.988000000     3.145000000    -5.681000000
O    -2.972000000    -4.674000000     0.815000000
H    -2.237000000    -4.489000000     0.230000000
H    -3.520000000    -3.890000000     0.767000000
O     4.205000000    -3.118000000     2.176000000
H     4.283000000    -2.164000000     2.131000000
H     3.283000000    -3.274000000     2.380000000
O    -4.253000000     0.623000000    -6.765000000
H    -3.736000000     1.415000000    -6.620000000
H    -4.375000000     0.587000000    -7.714000000
O    -1.816000000     3.820000000    -4.092000000
H    -1.438000000     4.363000000    -3.400000000
H    -2.717000000     4.134000000    -4.177000000
O     1.842000000     3.641000000     0.579000000
H     2.029000000     2.894000000     0.011000000
H     2.277000000     4.380000000     0.154000000
O    -3.067000000     4.352000000     4.943000000
H    -3.061000000     3.396000000     4.898000000
H    -3.792000000     4.559000000     5.533000000
O    -1.072000000    -3.389000000    -5.816000000
H    -1.250000000    -3.910000000    -6.599000000
H    -1.224000000    -3.992000000    -5.088000000
O     5.565000000    -1.365000000     4.933000000
H     4.641000000    -1.116000000     4.931000000
H     5.601000000    -2.146000000     5.485000000
O     1.616000000    -3.461000000    -0.255000000
H     0.678000000    -3.310000000    -0.135000000
H     1.672000000    -4.351000000    -0.602000000
O     4.252000000     1.962000000    -6.293000000
H     3.869000000     1.111000000    -6.077000000
H     4.302000000     2.422000000    -5.456000000
O    -1.897000000     0.935000000     8.315000000
H    -2.719000000     1.294000000     7.981000000
H    -1.387000000     0.734000000     7.530000000
O    -1.886000000    -1.589000000     5.112000000
H    -1.828000000    -2.260000000     4.430000000
H    -1.612000000    -0.782000000     4.677000000
O     3.307000000     0.193000000     5.628000000
H     2.565000000     0.434000000     5.072000000
H     3.352000000     0.891000000     6.282000000
O    -4.504000000    -0.669000000     3.306000000
H    -5.010000000     0.143000000     3.335000000
H    -4.714000000    -1.113000000     4.127000000
O    -4.500000000    -2.266000000     1.003000000
H    -5.381000000    -1.931000000     0.838000000
H    -4.213000000    -1.806000000     1.792000000
O     0.316000000     0.658000000     6.298000000
H     0.843000000     1.396000000     6.605000000
H     0.283000000     0.767000000     5.348000000
O    -3.943000000    -1.666000000     6.858000000
H    -4.735000000    -1.618000000     6.324000000
H    -3.245000000    -1.355000000     6.281000000
O    -2.337000000    -0.890000000    -5.227000000
H    -2.025000000    -1.513000000    -5.885000000
H    -3.047000000    -0.418000000    -5.662000000
O     1.191000000     4.799000000     5.236000000
H     1.327000000     4.161000000     5.937000000
H     1.487000000     4.352000000     4.444000000
O    -1.898000000     3.134000000    -0.759000000
H    -2.609000000     2.771000000    -1.287000000
H    -1.541000000     2.381000000    -0.289000000
O     5.065000000    -0.400000000     1.501000000
H     4.672000000    -0.020000000     0.716000000
H     5.379000000     0.353000000     2.001000000
O     5.218000000    -0.740000000    -2.330000000
H     5.327000000    -0.227000000    -3.131000000
H     6.074000000    -1.145000000    -2.188000000
O     4.647000000    -3.762000000    -1.269000000
H     3.899000000    -3.924000000    -0.694000000
H     4.874000000    -2.845000000    -1.113000000
O     4.470000000     1.358000000    -0.787000000
H     3.913000000     1.963000000    -1.277000000
H     4.657000000     0.651000000    -1.405000000
O     2.671000000    -1.660000000    -3.817000000
H     1.978000000    -1.865000000    -3.190000000
H     3.481000000    -1.726000000    -3.311000000
O     1.628000000    -2.913000000     3.354000000
H     1.765000000    -2.083000000     3.810000000
H     0.726000000    -2.867000000     3.037000000
O    -5.089000000     3.657000000    -0.166000000
H    -4.507000000     4.253000000    -0.639000000
H    -4.955000000     2.808000000    -0.587000000
O    -1.074000000    -3.178000000    -0.674000000
H    -1.321000000    -2.260000000    -0.792000000
H    -0.885000000    -3.490000000    -1.559000000
O    -1.604000000    -3.717000000     7.107000000
H    -1.174000000    -4.407000000     6.601000000
H    -1.902000000    -3.089000000     6.449000000
O    -0.955000000    -2.565000000     2.383000000
H    -1.327000000    -1.729000000     2.102000000
H    -0.925000000    -3.094000000     1.585000000
O    -4.348000000     1.180000000    -1.792000000
H    -4.554000000     0.257000000    -1.937000000
H    -5.169000000     1.639000000    -1.972000000
O     5.489000000     3.652000000     0.636000000
H     5.398000000     2.891000000     0.062000000
H     5.060000000     4.363000000     0.160000000
O     7.199000000    -1.992000000     2.560000000
H     6.911000000    -2.099000000     3.466000000
H     6.426000000    -1.663000000     2.100000000
O    -3.082000000    -2.567000000    -3.063000000
H    -2.790000000    -1.919000000    -3.705000000
H    -3.870000000    -2.184000000    -2.677000000
O    -1.531000000    -4.837000000    -3.775000000
H    -1.819000000    -5.482000000    -3.129000000
H    -2.015000000    -4.042000000    -3.552000000
O    -5.555000000    -1.648000000    -2.189000000
H    -6.316000000    -1.793000000    -2.752000000
H    -5.922000000    -1.544000000    -1.312000000
O     1.065000000    -2.188000000     6.480000000
H     1.250000000    -1.250000000     6.520000000
H     0.135000000    -2.240000000     6.257000000
O     0.804000000     2.848000000    -4.279000000
H     1.320000000     3.440000000    -4.826000000
H    -0.067000000     3.244000000    -4.253000000
O    -3.093000000     1.750000000     4.345000000
H    -3.573000000     1.503000000     3.554000000
H    -2.294000000     1.223000000     4.314000000
O     2.033000000     2.942000000     3.279000000
H     1.781000000     2.026000000     3.393000000
H     1.912000000     3.109000000     2.344000000
O    -4.603000000     2.019000000     2.058000000
H    -5.442000000     1.710000000     2.399000000
H    -4.838000000     2.578000000     1.317000000
O     2.910000000     2.895000000    -2.486000000
H     2.053000000     2.802000000    -2.902000000
H     3.461000000     3.293000000    -3.160000000
O     4.674000000     4.099000000     3.294000000
H     4.736000000     4.026000000     2.342000000
H     3.793000000     3.789000000     3.501000000
O     1.180000000    -2.801000000    -7.204000000
H     0.626000000    -3.078000000    -6.474000000
H     0.874000000    -1.920000000    -7.416000000
