161
-3026.49359
C     0.714000000     1.239000000     0.446000000
H     1.219000000     2.189000000     0.604000000
C     1.059000000     0.457000000    -0.660000000
H     1.995000000     0.662000000    -1.175000000
C     0.281000000    -0.660000000    -0.983000000
C     0.661000000    -1.482000000    -2.192000000
H     0.228000000    -2.484000000    -2.201000000
H     0.277000000    -1.035000000    -3.111000000
H     1.742000000    -1.634000000    -2.247000000
C    -0.846000000    -0.977000000    -0.239000000
H    -1.399000000    -1.888000000    -0.449000000
C    -1.180000000    -0.252000000     0.852000000
H    -1.992000000    -0.538000000     1.515000000
C    -0.398000000     0.891000000     1.243000000
C    -0.686000000     1.609000000     2.509000000
O    -1.630000000     1.292000000     3.264000000
O    -0.045000000     2.615000000     2.818000000
O    -0.783000000     0.652000000     5.655000000
H    -0.097000000     0.031000000     5.412000000
H    -1.321000000     0.735000000     4.867000000
O     4.630000000    -1.128000000    -1.662000000
H     3.896000000    -0.659000000    -2.059000000
H     5.404000000    -0.774000000    -2.099000000
O    -0.264000000     4.800000000     0.136000000
H    -0.149000000     3.920000000    -0.224000000
H    -1.088000000     5.107000000    -0.241000000
O    -3.574000000    -4.982000000    -1.174000000
H    -3.835000000    -4.065000000    -1.085000000
H    -3.331000000    -5.073000000    -2.096000000
O     2.776000000    -4.981000000     1.039000000
H     3.243000000    -4.353000000     0.487000000
H     3.429000000    -5.272000000     1.676000000
O     0.976000000     2.975000000     6.074000000
H     1.521000000     3.176000000     5.313000000
H     0.517000000     2.170000000     5.834000000
O    -4.313000000     0.234000000    -0.663000000
H    -3.939000000     0.541000000    -1.489000000
H    -3.945000000     0.820000000    -0.002000000
O     3.804000000     4.717000000     4.368000000
H     4.527000000     4.537000000     4.970000000
H     3.994000000     4.180000000     3.599000000
O    -3.586000000     3.639000000    -0.339000000
H    -2.876000000     3.223000000    -0.828000000
H    -3.769000000     3.033000000     0.380000000
O     1.169000000    -0.994000000     4.056000000
H     1.000000000    -0.919000000     3.116000000
H     1.368000000    -1.920000000     4.190000000
O     2.621000000    -5.214000000    -3.040000000
H     2.924000000    -5.081000000    -3.938000000
H     3.418000000    -5.187000000    -2.511000000
O    -3.524000000    -0.730000000     4.327000000
H    -2.988000000    -1.454000000     4.651000000
H    -2.892000000    -0.107000000     3.968000000
O    -2.621000000    -2.732000000    -3.820000000
H    -2.155000000    -1.996000000    -3.425000000
H    -2.569000000    -2.571000000    -4.762000000
O    -5.084000000     1.216000000     6.235000000
H    -6.005000000     1.115000000     5.996000000
H    -4.609000000     0.700000000     5.583000000
O     3.839000000     3.540000000    -1.677000000
H     4.213000000     4.359000000    -2.002000000
H     4.594000000     3.033000000    -1.381000000
O     2.135000000     2.248000000    -3.239000000
H     1.296000000     2.697000000    -3.343000000
H     2.655000000     2.836000000    -2.692000000
O    -3.532000000     1.789000000    -2.657000000
H    -2.955000000     1.319000000    -3.259000000
H    -3.718000000     2.617000000    -3.101000000
O     4.909000000    -2.940000000     0.504000000
H     5.798000000    -3.290000000     0.551000000
H     4.867000000    -2.505000000    -0.348000000
O    -1.994000000     1.164000000     8.338000000
H    -1.724000000     1.011000000     7.432000000
H    -2.885000000     0.819000000     8.384000000
O    -1.848000000     7.514000000     4.544000000
H    -2.273000000     7.862000000     3.760000000
H    -1.372000000     6.743000000     4.236000000
O    -1.011000000     2.623000000    -1.307000000
H    -0.485000000     1.833000000    -1.437000000
H    -1.202000000     2.931000000    -2.193000000
O    -4.841000000    -2.556000000    -0.996000000
H    -4.905000000    -1.661000000    -0.662000000
H    -5.303000000    -2.532000000    -1.834000000
O    -2.344000000     4.578000000     2.548000000
H    -1.509000000     4.150000000     2.736000000
H    -2.353000000     4.677000000     1.596000000
O     3.260000000     0.447000000    -4.688000000
H     2.831000000     1.049000000    -4.082000000
H     2.758000000     0.525000000    -5.500000000
O     1.918000000     6.872000000     4.724000000
H     2.522000000     6.293000000     5.188000000
H     1.359000000     6.281000000     4.219000000
O    -2.207000000    -1.841000000    -6.298000000
H    -1.391000000    -2.058000000    -6.750000000
H    -2.746000000    -1.420000000    -6.967000000
O     3.305000000     5.494000000     1.759000000
H     2.717000000     5.297000000     2.488000000
H     2.728000000     5.811000000     1.064000000
O     2.736000000    -0.728000000     1.701000000
H     2.398000000    -0.048000000     1.118000000
H     3.059000000    -1.410000000     1.112000000
O    -2.624000000    -5.433000000    -3.886000000
H    -2.445000000    -4.546000000    -3.574000000
H    -2.481000000    -5.388000000    -4.832000000
O     0.481000000    -2.316000000    -7.433000000
H     0.826000000    -3.152000000    -7.119000000
H     0.877000000    -2.202000000    -8.296000000
O    -3.761000000     1.620000000     1.601000000
H    -2.955000000     1.611000000     2.117000000
H    -4.453000000     1.432000000     2.235000000
O     0.780000000     5.324000000     2.726000000
H     0.616000000     4.398000000     2.903000000
H     0.472000000     5.455000000     1.829000000
O    -1.202000000    -4.872000000     0.479000000
H    -0.501000000    -5.010000000    -0.158000000
H    -2.008000000    -4.931000000    -0.034000000
O     1.636000000     0.105000000    -6.670000000
H     1.112000000    -0.696000000    -6.675000000
H     1.753000000     0.320000000    -7.595000000
O     0.128000000    -6.754000000    -3.788000000
H     0.909000000    -6.274000000    -3.510000000
H    -0.574000000    -6.104000000    -3.760000000
O     1.882000000     6.599000000    -0.343000000
H     1.123000000     6.017000000    -0.298000000
H     1.961000000     6.818000000    -1.271000000
O    -1.654000000     0.604000000    -4.696000000
H    -2.084000000    -0.109000000    -5.169000000
H    -1.319000000     1.179000000    -5.384000000
O     2.579000000     1.999000000     2.948000000
H     1.720000000     2.389000000     2.781000000
H     2.384000000     1.150000000     3.344000000
O    -5.804000000    -0.845000000     2.715000000
H    -6.275000000    -1.666000000     2.858000000
H    -5.019000000    -0.922000000     3.257000000
O    -7.013000000    -0.436000000     0.069000000
H    -6.769000000    -0.867000000     0.888000000
H    -6.220000000     0.025000000    -0.205000000
O     4.833000000    -2.187000000    -5.867000000
H     4.350000000    -1.636000000    -5.251000000
H     5.697000000    -1.779000000    -5.925000000
O    -1.440000000     4.090000000     7.552000000
H    -1.882000000     3.379000000     8.015000000
H    -0.893000000     3.649000000     6.902000000
O     5.401000000     2.320000000     3.106000000
H     4.459000000     2.167000000     3.034000000
H     5.764000000     1.962000000     2.296000000
O     0.855000000    -5.388000000    -1.122000000
H     1.415000000    -5.288000000    -1.891000000
H     1.428000000    -5.192000000    -0.381000000
O    -4.330000000     3.803000000     4.468000000
H    -3.982000000     3.143000000     5.067000000
H    -3.576000000     4.070000000     3.942000000
O    -3.947000000    -4.608000000     3.176000000
H    -4.293000000    -4.225000000     3.982000000
H    -3.026000000    -4.349000000     3.163000000
O    -1.697000000    -3.672000000     4.521000000
H    -1.038000000    -3.446000000     3.864000000
H    -1.190000000    -3.924000000     5.292000000
O     0.182000000    -3.334000000     2.464000000
H    -0.016000000    -3.661000000     1.587000000
H     1.010000000    -3.755000000     2.695000000
