161
-3033.49936
C     0.674000000     0.916000000     0.901000000
H     1.218000000     1.693000000     1.433000000
C     0.376000000     1.177000000    -0.418000000
H     0.626000000     2.158000000    -0.815000000
C    -0.221000000     0.234000000    -1.223000000
C    -0.496000000     0.507000000    -2.685000000
H    -1.495000000     0.945000000    -2.738000000
H     0.283000000     1.143000000    -3.110000000
H    -0.609000000    -0.431000000    -3.232000000
C    -0.620000000    -1.008000000    -0.672000000
H    -1.015000000    -1.831000000    -1.261000000
C    -0.415000000    -1.215000000     0.755000000
H    -0.618000000    -2.211000000     1.141000000
C     0.342000000    -0.306000000     1.560000000
C     0.677000000    -0.557000000     3.041000000
O     0.316000000    -1.582000000     3.584000000
O     0.985000000     0.373000000     3.740000000
O     3.415000000    -2.431000000     7.883000000
H     2.954000000    -1.960000000     8.577000000
H     3.179000000    -1.966000000     7.081000000
O     0.816000000     6.311000000    -1.282000000
H     0.724000000     7.224000000    -1.555000000
H     1.526000000     6.322000000    -0.641000000
O    -0.952000000    -3.941000000     4.165000000
H    -0.255000000    -4.135000000     4.791000000
H    -0.844000000    -3.011000000     3.967000000
O     4.187000000     1.069000000     6.680000000
H     4.976000000     0.926000000     6.158000000
H     3.588000000     0.375000000     6.405000000
O    -2.257000000     2.648000000     6.983000000
H    -1.386000000     2.289000000     6.814000000
H    -2.092000000     3.537000000     7.298000000
O    -2.136000000     2.929000000     2.809000000
H    -2.212000000     1.980000000     2.910000000
H    -2.277000000     3.082000000     1.875000000
O    -0.462000000    -6.088000000    -1.878000000
H     0.182000000    -5.785000000    -1.237000000
H    -0.592000000    -7.013000000    -1.667000000
O     0.344000000     3.249000000    -5.330000000
H    -0.518000000     3.449000000    -5.694000000
H     0.665000000     4.088000000    -4.999000000
O    -4.418000000     0.754000000     0.220000000
H    -4.138000000     1.659000000     0.082000000
H    -5.067000000     0.597000000    -0.466000000
O     2.294000000     3.810000000     6.365000000
H     2.410000000     4.741000000     6.175000000
H     2.147000000     3.775000000     7.310000000
O     2.387000000     2.626000000     3.734000000
H     2.045000000     3.033000000     4.530000000
H     1.957000000     1.772000000     3.698000000
O     2.479000000     6.743000000     1.005000000
H     2.428000000     7.475000000     1.619000000
H     1.778000000     6.151000000     1.278000000
O     1.241000000    -4.670000000    -0.203000000
H     1.215000000    -3.714000000    -0.155000000
H     1.436000000    -4.950000000     0.691000000
O     2.400000000    -1.111000000     5.588000000
H     1.955000000    -0.552000000     4.951000000
H     1.780000000    -1.821000000     5.757000000
O     1.641000000    -6.291000000     2.699000000
H     2.580000000    -6.471000000     2.657000000
H     1.581000000    -5.337000000     2.739000000
O     0.274000000     1.353000000     6.246000000
H     0.215000000     1.032000000     5.346000000
H     1.061000000     1.898000000     6.255000000
O    -1.481000000    -1.345000000     5.484000000
H    -2.087000000    -0.650000000     5.227000000
H    -0.758000000    -1.275000000     4.860000000
O    -0.467000000     0.336000000    -5.979000000
H    -0.172000000     1.213000000    -5.734000000
H    -0.972000000     0.469000000    -6.781000000
O    -3.927000000    -2.407000000     4.818000000
H    -3.114000000    -2.075000000     5.199000000
H    -4.615000000    -1.879000000     5.223000000
O    -2.427000000     3.924000000    -5.968000000
H    -2.683000000     4.364000000    -5.157000000
H    -3.008000000     4.292000000    -6.634000000
O    -3.115000000     0.143000000     2.625000000
H    -3.818000000     0.271000000     1.988000000
H    -2.711000000    -0.688000000     2.373000000
O    -0.694000000    -0.417000000     7.977000000
H    -0.940000000    -0.951000000     7.221000000
H    -0.426000000     0.422000000     7.601000000
O     0.890000000     4.654000000     2.675000000
H     0.148000000     4.140000000     2.360000000
H     1.588000000     4.012000000     2.807000000
O     1.790000000    -3.569000000     2.892000000
H     1.123000000    -2.949000000     3.185000000
H     2.592000000    -3.281000000     3.328000000
O    -3.853000000    -3.715000000    -5.935000000
H    -4.418000000    -4.088000000    -5.258000000
H    -3.479000000    -2.932000000    -5.530000000
O     4.893000000     3.859000000    -3.418000000
H     4.681000000     4.745000000    -3.122000000
H     4.083000000     3.538000000    -3.813000000
O     1.515000000    -2.686000000    -6.689000000
H     0.951000000    -1.960000000    -6.952000000
H     1.006000000    -3.471000000    -6.892000000
O    -3.634000000     0.630000000     5.157000000
H    -4.089000000     1.459000000     5.302000000
H    -3.631000000     0.522000000     4.206000000
O     3.851000000    -0.346000000    -2.746000000
H     4.678000000    -0.075000000    -2.346000000
H     4.039000000    -0.381000000    -3.684000000
O     5.417000000     2.434000000     2.132000000
H     4.725000000     1.844000000     1.835000000
H     5.403000000     2.360000000     3.086000000
O     1.221000000    -3.985000000     6.033000000
H     1.459000000    -4.859000000     5.725000000
H     0.899000000    -4.124000000     6.924000000
O     1.766000000    -3.981000000    -3.052000000
H     1.463000000    -4.087000000    -2.150000000
H     0.994000000    -3.680000000    -3.530000000
O    -4.308000000    -0.845000000    -2.545000000
H    -3.685000000    -1.005000000    -3.254000000
H    -3.833000000    -1.086000000    -1.750000000
O     2.792000000    -1.596000000    -0.608000000
H     3.217000000    -1.188000000    -1.363000000
H     1.947000000    -1.153000000    -0.540000000
O    -1.789000000     5.808000000    -0.396000000
H    -0.862000000     6.008000000    -0.527000000
H    -2.246000000     6.605000000    -0.663000000
O     3.094000000     2.227000000    -5.459000000
H     2.222000000     2.574000000    -5.272000000
H     3.031000000     1.295000000    -5.254000000
O    -5.014000000    -3.106000000    -0.162000000
H    -4.222000000    -3.638000000    -0.239000000
H    -5.092000000    -2.927000000     0.775000000
O     1.317000000     5.387000000    -3.969000000
H     0.836000000     6.163000000    -3.680000000
H     1.337000000     4.818000000    -3.200000000
O    -2.071000000    -4.943000000     1.954000000
H    -1.836000000    -4.733000000     2.858000000
H    -1.412000000    -5.580000000     1.678000000
O    -3.332000000     3.467000000    -0.159000000
H    -3.697000000     4.282000000     0.186000000
H    -2.762000000     3.745000000    -0.877000000
O    -3.885000000    -5.364000000    -3.158000000
H    -3.851000000    -5.129000000    -2.231000000
H    -4.789000000    -5.187000000    -3.418000000
O     4.050000000    -0.319000000     1.399000000
H     3.990000000    -1.061000000     2.000000000
H     3.772000000    -0.672000000     0.554000000
O     4.687000000    -3.309000000     0.847000000
H     4.260000000    -3.245000000    -0.007000000
H     4.019000000    -3.022000000     1.471000000
O     4.170000000    -2.429000000     3.571000000
H     4.038000000    -1.706000000     4.183000000
H     4.676000000    -3.073000000     4.066000000
O    -2.640000000    -1.155000000    -4.957000000
H    -1.781000000    -0.761000000    -4.805000000
H    -2.853000000    -0.924000000    -5.861000000
O    -5.772000000     1.153000000    -3.611000000
H    -5.223000000     0.573000000    -3.083000000
H    -5.691000000     0.813000000    -4.502000000
O    -2.812000000    -4.814000000    -0.815000000
H    -1.984000000    -5.088000000    -1.208000000
H    -2.611000000    -4.700000000     0.114000000
O    -1.787000000    -6.650000000     5.085000000
H    -1.404000000    -5.807000000     4.845000000
H    -1.803000000    -6.642000000     6.042000000
