161
-3044.98862
C    -0.135000000     1.409000000     0.364000000
H    -0.447000000     2.396000000     0.697000000
C    -1.042000000     0.696000000    -0.388000000
H    -1.913000000     1.129000000    -0.875000000
C    -0.744000000    -0.560000000    -0.748000000
C    -1.719000000    -1.311000000    -1.651000000
H    -1.304000000    -2.313000000    -1.786000000
H    -2.692000000    -1.431000000    -1.171000000
H    -1.824000000    -0.909000000    -2.661000000
C     0.458000000    -1.205000000    -0.290000000
H     0.746000000    -2.204000000    -0.609000000
C     1.232000000    -0.492000000     0.606000000
H     2.063000000    -1.026000000     1.060000000
C     0.947000000     0.783000000     0.959000000
C     1.875000000     1.486000000     1.896000000
O     2.788000000     0.899000000     2.450000000
O     1.711000000     2.658000000     2.147000000
O     0.367000000     4.278000000    -2.770000000
H    -0.184000000     4.585000000    -2.049000000
H    -0.107000000     4.536000000    -3.560000000
O    -6.635000000    -2.519000000    -0.838000000
H    -6.306000000    -2.697000000     0.043000000
H    -7.586000000    -2.587000000    -0.756000000
O     3.849000000     3.928000000     5.396000000
H     3.455000000     3.056000000     5.387000000
H     3.226000000     4.477000000     4.919000000
O     2.912000000    -4.031000000     3.142000000
H     1.965000000    -4.150000000     3.071000000
H     3.035000000    -3.082000000     3.127000000
O     0.167000000     1.457000000    -2.999000000
H     0.142000000     0.974000000    -2.172000000
H    -0.232000000     2.302000000    -2.795000000
O     1.326000000    -2.332000000     5.722000000
H     0.402000000    -2.111000000     5.603000000
H     1.705000000    -2.254000000     4.847000000
O     2.712000000     1.569000000     4.977000000
H     2.487000000     1.491000000     4.050000000
H     1.934000000     1.259000000     5.440000000
O     1.162000000    -6.658000000    -1.145000000
H     0.810000000    -6.022000000    -0.523000000
H     0.784000000    -6.405000000    -1.987000000
O    -4.587000000     0.772000000    -0.101000000
H    -4.199000000     0.414000000    -0.899000000
H    -4.768000000     1.688000000    -0.313000000
O    -6.584000000    -0.573000000    -2.917000000
H    -6.106000000     0.147000000    -2.506000000
H    -6.827000000    -1.146000000    -2.190000000
O     5.789000000     2.209000000    -0.745000000
H     5.536000000     2.652000000    -1.555000000
H     6.745000000     2.181000000    -0.775000000
O     5.917000000    -1.748000000     4.378000000
H     6.126000000    -2.123000000     5.233000000
H     5.898000000    -0.803000000     4.529000000
O     4.717000000     4.620000000     1.126000000
H     4.795000000     3.943000000     0.454000000
H     4.613000000     4.135000000     1.944000000
O    -1.888000000     4.084000000     2.575000000
H    -2.609000000     4.130000000     1.948000000
H    -1.885000000     4.942000000     3.000000000
O    -2.753000000    -4.972000000     0.274000000
H    -2.741000000    -4.430000000    -0.515000000
H    -3.407000000    -5.646000000     0.092000000
O     2.302000000     5.080000000     3.323000000
H     2.729000000     5.761000000     2.803000000
H     2.299000000     4.311000000     2.753000000
O    -0.798000000    -1.082000000    -5.151000000
H    -0.201000000    -1.608000000    -4.619000000
H    -0.248000000    -0.387000000    -5.512000000
O    -3.623000000    -0.758000000    -5.131000000
H    -2.689000000    -0.555000000    -5.094000000
H    -3.850000000    -0.674000000    -6.058000000
O     4.805000000    -5.039000000     1.201000000
H     4.371000000    -4.770000000     2.011000000
H     4.743000000    -4.274000000     0.630000000
O     0.254000000    -5.688000000    -3.428000000
H     0.650000000    -4.914000000    -3.829000000
H    -0.688000000    -5.532000000    -3.485000000
O    -3.076000000    -0.294000000     2.303000000
H    -2.671000000     0.289000000     1.661000000
H    -3.928000000     0.102000000     2.482000000
O     0.235000000    -3.353000000     2.675000000
H    -0.507000000    -3.887000000     2.962000000
H     0.146000000    -2.537000000     3.167000000
O     0.063000000    -4.843000000     0.334000000
H    -0.873000000    -5.028000000     0.253000000
H     0.127000000    -4.258000000     1.089000000
O     2.241000000    -1.286000000    -2.445000000
H     2.714000000    -0.469000000    -2.602000000
H     1.977000000    -1.237000000    -1.526000000
O    -3.878000000     0.767000000    -2.742000000
H    -4.408000000     1.388000000    -3.241000000
H    -3.764000000     0.022000000    -3.332000000
O    -5.632000000    -3.182000000    -3.421000000
H    -5.448000000    -2.365000000    -3.886000000
H    -5.945000000    -2.903000000    -2.561000000
O     2.225000000     1.054000000    -5.076000000
H     1.787000000     1.085000000    -4.225000000
H     3.159000000     1.067000000    -4.865000000
O     3.593000000    -4.268000000    -2.501000000
H     3.888000000    -3.416000000    -2.180000000
H     2.853000000    -4.494000000    -1.938000000
O     5.062000000    -2.787000000    -0.335000000
H     5.251000000    -1.945000000     0.079000000
H     5.757000000    -2.896000000    -0.984000000
O     2.623000000     3.588000000    -0.554000000
H     1.728000000     3.609000000    -0.894000000
H     2.518000000     3.525000000     0.395000000
O     6.854000000     1.361000000     2.016000000
H     6.080000000     0.881000000     2.312000000
H     6.974000000     2.049000000     2.670000000
O     3.365000000     1.312000000    -1.829000000
H     4.173000000     0.800000000    -1.827000000
H     3.581000000     2.102000000    -1.334000000
O     5.628000000     1.243000000     4.634000000
H     5.983000000     2.115000000     4.465000000
H     4.815000000     1.404000000     5.114000000
O    -5.963000000     0.165000000     1.953000000
H    -6.747000000     0.710000000     1.892000000
H    -5.507000000     0.308000000     1.123000000
O    -2.418000000     1.422000000     5.594000000
H    -1.924000000     1.601000000     4.794000000
H    -2.631000000     0.490000000     5.539000000
O    -2.417000000    -5.627000000    -4.921000000
H    -2.330000000    -4.861000000    -5.489000000
H    -3.361000000    -5.773000000    -4.860000000
O     3.138000000     7.127000000    -0.021000000
H     3.623000000     6.317000000     0.139000000
H     2.934000000     7.104000000    -0.956000000
O     1.010000000    -3.230000000    -4.217000000
H     1.509000000    -2.727000000    -3.574000000
H     1.562000000    -3.232000000    -5.000000000
O    -2.974000000    -4.196000000    -2.411000000
H    -3.636000000    -3.552000000    -2.660000000
H    -2.881000000    -4.755000000    -3.182000000
O    -0.846000000    -1.448000000     4.493000000
H    -0.709000000    -0.502000000     4.447000000
H    -1.792000000    -1.549000000     4.590000000
O    -0.842000000     1.778000000     3.368000000
H     0.012000000     1.908000000     2.956000000
H    -1.416000000     2.409000000     2.934000000
O    -2.196000000    -3.392000000    -6.489000000
H    -2.907000000    -2.830000000    -6.795000000
H    -1.522000000    -2.782000000    -6.188000000
O     0.066000000     4.822000000     5.410000000
H     0.736000000     4.280000000     4.992000000
H    -0.741000000     4.607000000     4.942000000
O     4.509000000    -0.108000000     0.529000000
H     4.940000000     0.744000000     0.449000000
H     3.911000000    -0.005000000     1.269000000
O    -3.622000000     3.960000000     0.353000000
H    -4.327000000     4.225000000    -0.238000000
H    -2.819000000     4.182000000    -0.118000000
O     3.099000000    -1.459000000     3.615000000
H     3.982000000    -1.650000000     3.932000000
H     3.090000000    -0.510000000     3.491000000
O    -1.225000000     5.508000000    -0.762000000
H    -1.056000000     6.446000000    -0.668000000
H    -1.011000000     5.139000000     0.094000000
O    -3.930000000    -2.876000000     1.991000000
H    -3.362000000    -3.368000000     1.399000000
H    -3.498000000    -2.027000000     2.087000000
