161
-3064.87626
C     0.219000000     1.174000000    -0.853000000
H     0.302000000     1.989000000    -1.567000000
C    -0.530000000     0.090000000    -1.193000000
H    -1.103000000     0.125000000    -2.117000000
C    -0.668000000    -0.955000000    -0.323000000
C    -1.569000000    -2.042000000    -0.704000000
H    -1.048000000    -2.994000000    -0.586000000
H    -2.484000000    -2.089000000    -0.110000000
H    -1.985000000    -2.049000000    -1.714000000
C    -0.020000000    -0.963000000     0.912000000
H     0.036000000    -1.843000000     1.547000000
C     0.768000000     0.137000000     1.336000000
H     1.339000000     0.080000000     2.259000000
C     0.866000000     1.237000000     0.445000000
C     1.724000000     2.420000000     0.807000000
O     1.976000000     2.586000000     1.961000000
O     2.183000000     3.104000000    -0.107000000
O    -1.883000000    -3.675000000     3.412000000
H    -2.550000000    -3.013000000     3.232000000
H    -1.598000000    -3.491000000     4.307000000
O     1.360000000     4.236000000     3.884000000
H     1.397000000     3.683000000     3.103000000
H     0.457000000     4.155000000     4.191000000
O     3.114000000    -4.879000000    -1.128000000
H     2.288000000    -4.703000000    -0.678000000
H     2.939000000    -5.659000000    -1.655000000
O     0.059000000    -5.462000000     5.165000000
H     0.671000000    -6.133000000     4.862000000
H     0.361000000    -4.656000000     4.745000000
O     1.980000000     6.248000000     6.080000000
H     1.848000000     5.598000000     5.390000000
H     1.872000000     5.758000000     6.895000000
O    -1.023000000    -0.620000000     3.881000000
H    -0.847000000     0.299000000     3.679000000
H    -1.451000000    -0.598000000     4.737000000
O     2.769000000    -3.006000000     1.379000000
H     2.865000000    -3.066000000     0.429000000
H     3.321000000    -2.266000000     1.630000000
O    -3.020000000     0.853000000     0.774000000
H    -2.246000000     0.309000000     0.921000000
H    -3.185000000     0.785000000    -0.167000000
O     5.758000000     1.339000000     4.698000000
H     6.383000000     0.979000000     4.069000000
H     4.903000000     1.203000000     4.289000000
O     3.450000000     5.347000000     0.679000000
H     2.959000000     4.533000000     0.567000000
H     3.691000000     5.356000000     1.605000000
O    -2.768000000    -3.145000000    -4.491000000
H    -2.277000000    -3.313000000    -5.295000000
H    -2.613000000    -3.919000000    -3.950000000
O     2.189000000     2.891000000     6.126000000
H     2.028000000     3.511000000     5.414000000
H     1.487000000     3.059000000     6.754000000
O    -3.253000000     2.575000000    -3.818000000
H    -3.924000000     2.157000000    -3.279000000
H    -3.019000000     3.369000000    -3.337000000
O    -4.272000000    -1.967000000     3.989000000
H    -4.930000000    -1.347000000     3.675000000
H    -4.106000000    -1.703000000     4.894000000
O    -4.120000000     0.655000000    -1.742000000
H    -4.880000000     0.180000000    -1.406000000
H    -3.806000000     0.119000000    -2.470000000
O     2.697000000    -0.554000000    -1.286000000
H     3.358000000    -0.108000000    -0.757000000
H     2.024000000     0.110000000    -1.440000000
O    -3.924000000    -0.783000000    -4.145000000
H    -4.794000000    -0.705000000    -4.538000000
H    -3.681000000    -1.699000000    -4.280000000
O    -0.737000000     2.127000000     4.539000000
H    -1.623000000     1.775000000     4.622000000
H    -0.395000000     2.127000000     5.432000000
O     0.262000000    -4.349000000     1.741000000
H     1.113000000    -3.937000000     1.887000000
H    -0.263000000    -4.089000000     2.499000000
O    -0.821000000     4.249000000    -6.224000000
H    -0.675000000     3.597000000    -5.539000000
H    -0.224000000     3.994000000    -6.928000000
O     0.250000000    -5.248000000    -3.274000000
H    -0.123000000    -5.083000000    -2.408000000
H     0.548000000    -4.389000000    -3.575000000
O     7.054000000     3.192000000    -1.382000000
H     7.503000000     3.678000000    -0.690000000
H     6.490000000     3.842000000    -1.803000000
O     4.738000000     0.498000000     0.155000000
H     5.381000000     1.039000000    -0.302000000
H     4.200000000     1.123000000     0.640000000
O     5.600000000     7.027000000    -0.134000000
H     6.290000000     6.581000000    -0.624000000
H     5.031000000     6.321000000     0.173000000
O     4.181000000     3.925000000     3.259000000
H     4.760000000     3.395000000     3.807000000
H     3.300000000     3.624000000     3.481000000
O     2.421000000     7.978000000     0.146000000
H     2.745000000     8.112000000    -0.744000000
H     2.914000000     7.224000000     0.470000000
O     6.217000000     5.413000000     2.080000000
H     5.520000000     4.859000000     2.431000000
H     6.213000000     6.188000000     2.642000000
O    -2.361000000     4.731000000    -1.490000000
H    -2.409000000     5.353000000    -2.215000000
H    -1.479000000     4.842000000    -1.137000000
O    -5.337000000    -0.038000000     2.393000000
H    -4.546000000     0.209000000     1.913000000
H    -5.642000000    -0.834000000     1.958000000
O     0.254000000     5.272000000     0.052000000
H     0.812000000     6.026000000     0.240000000
H     0.855000000     4.607000000    -0.284000000
O    -1.572000000    -0.003000000    -5.248000000
H    -2.347000000    -0.302000000    -4.774000000
H    -1.005000000    -0.774000000    -5.290000000
O     1.478000000    -2.405000000    -3.041000000
H     2.060000000    -2.047000000    -2.371000000
H     1.353000000    -1.685000000    -3.659000000
O     0.690000000    -2.887000000     4.349000000
H     1.574000000    -2.579000000     4.551000000
H     0.245000000    -2.119000000     3.990000000
O    -3.405000000     3.613000000     1.638000000
H    -3.999000000     3.902000000     0.944000000
H    -2.996000000     2.822000000     1.288000000
O     2.057000000     0.301000000    -4.445000000
H     1.845000000     1.226000000    -4.326000000
H     3.005000000     0.287000000    -4.575000000
O     3.091000000    -1.518000000     4.959000000
H     3.172000000    -0.623000000     4.630000000
H     3.271000000    -1.447000000     5.896000000
O     2.199000000     3.192000000    -4.863000000
H     2.227000000     3.507000000    -3.959000000
H     1.278000000     2.982000000    -5.015000000
O    -5.502000000    -2.185000000     0.264000000
H    -5.897000000    -3.024000000     0.501000000
H    -5.945000000    -1.931000000    -0.546000000
O     2.854000000     3.966000000    -2.384000000
H     3.517000000     4.604000000    -2.121000000
H     2.601000000     3.533000000    -1.569000000
O    -0.622000000    -5.542000000    -0.569000000
H    -0.702000000    -5.073000000     0.262000000
H    -0.302000000    -6.411000000    -0.324000000
O    -0.294000000     2.342000000    -4.312000000
H    -0.794000000     1.621000000    -4.692000000
H    -0.726000000     2.520000000    -3.477000000
O    -2.833000000    -5.205000000    -2.496000000
H    -2.189000000    -5.130000000    -1.791000000
H    -2.554000000    -5.973000000    -2.994000000
O     3.612000000    -5.312000000     2.765000000
H     3.333000000    -4.477000000     2.390000000
H     4.422000000    -5.524000000     2.301000000
O    -1.492000000     4.745000000     3.088000000
H    -0.942000000     5.017000000     2.354000000
H    -2.198000000     4.240000000     2.685000000
O     5.756000000    -2.108000000     1.053000000
H     5.612000000    -1.164000000     0.987000000
H     6.666000000    -2.231000000     0.784000000
O     0.991000000     6.576000000    -2.930000000
H     1.704000000     6.716000000    -3.554000000
H     1.407000000     6.654000000    -2.071000000
O    -5.763000000    -5.293000000    -2.272000000
H    -5.938000000    -5.447000000    -1.344000000
H    -4.809000000    -5.290000000    -2.339000000
O     2.996000000     1.080000000     4.399000000
H     2.470000000     1.497000000     3.717000000
H     2.875000000     1.635000000     5.169000000
