161
-3058.53396
C    -0.392000000     1.380000000     0.405000000
H    -0.746000000     2.360000000     0.715000000
C    -0.947000000     0.712000000    -0.643000000
H    -1.899000000     1.032000000    -1.058000000
C    -0.372000000    -0.471000000    -1.083000000
C    -1.090000000    -1.326000000    -2.120000000
H    -1.022000000    -2.374000000    -1.820000000
H    -2.171000000    -1.212000000    -2.227000000
H    -0.583000000    -1.150000000    -3.070000000
C     0.749000000    -0.997000000    -0.397000000
H     1.086000000    -1.985000000    -0.700000000
C     1.180000000    -0.468000000     0.810000000
H     1.871000000    -1.010000000     1.449000000
C     0.629000000     0.754000000     1.244000000
C     1.175000000     1.411000000     2.467000000
O     1.587000000     0.765000000     3.391000000
O     0.948000000     2.583000000     2.641000000
O    -0.586000000     0.040000000     6.438000000
H    -1.166000000    -0.500000000     5.900000000
H    -0.443000000    -0.478000000     7.230000000
O    -0.728000000     4.048000000    -5.097000000
H    -1.144000000     4.910000000    -5.063000000
H    -0.665000000     3.776000000    -4.181000000
O     3.029000000     6.644000000     5.297000000
H     2.280000000     7.221000000     5.448000000
H     2.695000000     5.969000000     4.705000000
O     3.536000000     2.910000000     7.573000000
H     2.978000000     3.466000000     8.117000000
H     2.931000000     2.489000000     6.963000000
O    -3.789000000     0.734000000     2.606000000
H    -2.960000000     1.096000000     2.919000000
H    -4.332000000     1.501000000     2.423000000
O     1.143000000    -5.007000000    -0.229000000
H     0.356000000    -4.857000000     0.294000000
H     1.760000000    -4.338000000     0.068000000
O    -1.331000000     0.484000000    -5.252000000
H    -1.047000000     1.079000000    -5.946000000
H    -1.791000000    -0.218000000    -5.713000000
O     0.820000000    -1.990000000     3.871000000
H     0.919000000    -1.038000000     3.852000000
H     1.100000000    -2.278000000     3.003000000
O     3.567000000     3.890000000     3.710000000
H     2.752000000     3.434000000     3.500000000
H     3.940000000     3.391000000     4.437000000
O    -1.372000000    -6.484000000    -4.566000000
H    -0.906000000    -5.659000000    -4.698000000
H    -2.281000000    -6.284000000    -4.788000000
O     5.124000000    -3.916000000    -1.013000000
H     5.193000000    -3.021000000    -1.346000000
H     5.921000000    -4.348000000    -1.321000000
O    -4.673000000    -2.633000000    -5.104000000
H    -4.531000000    -2.076000000    -4.339000000
H    -4.376000000    -2.104000000    -5.844000000
O     4.588000000    -1.286000000     1.755000000
H     4.661000000    -0.939000000     2.644000000
H     5.481000000    -1.256000000     1.412000000
O     4.276000000    -0.417000000     4.348000000
H     4.793000000     0.279000000     4.753000000
H     3.475000000     0.018000000     4.055000000
O     5.964000000     4.676000000     2.423000000
H     5.116000000     4.476000000     2.820000000
H     6.245000000     5.483000000     2.853000000
O     1.601000000     1.521000000     6.090000000
H     1.558000000     1.384000000     5.144000000
H     1.042000000     0.836000000     6.457000000
O     2.533000000     6.550000000     1.417000000
H     3.312000000     6.652000000     0.869000000
H     2.130000000     5.737000000     1.111000000
O     5.232000000     1.783000000     5.516000000
H     5.876000000     2.381000000     5.896000000
H     4.513000000     1.773000000     6.147000000
O    -2.816000000     4.634000000     1.476000000
H    -3.648000000     4.703000000     1.008000000
H    -2.172000000     5.007000000     0.874000000
O     0.513000000     5.134000000     4.391000000
H     0.467000000     6.035000000     4.073000000
H     0.681000000     4.611000000     3.607000000
O    -3.106000000    -1.221000000    -6.774000000
H    -3.429000000    -0.351000000    -7.011000000
H    -3.409000000    -1.790000000    -7.481000000
O    -1.274000000     3.259000000    -2.524000000
H    -1.945000000     3.334000000    -1.846000000
H    -0.522000000     2.873000000    -2.075000000
O     4.267000000    -4.727000000     3.433000000
H     3.582000000    -4.354000000     3.988000000
H     4.027000000    -4.459000000     2.545000000
O    -1.512000000    -5.849000000    -1.961000000
H    -1.532000000    -6.270000000    -2.820000000
H    -0.670000000    -5.396000000    -1.935000000
O     0.245000000    -4.175000000    -3.766000000
H     1.106000000    -4.560000000    -3.927000000
H     0.337000000    -3.260000000    -4.033000000
O    -4.726000000     0.626000000    -1.229000000
H    -5.326000000     1.253000000    -0.825000000
H    -4.873000000    -0.189000000    -0.750000000
O    -0.415000000    -3.688000000     1.541000000
H    -1.122000000    -4.124000000     2.016000000
H    -0.785000000    -2.843000000     1.285000000
O     3.024000000    -5.771000000    -2.029000000
H     2.303000000    -5.632000000    -1.414000000
H     3.814000000    -5.615000000    -1.511000000
O    -4.886000000    -1.970000000    -0.104000000
H    -4.423000000    -2.777000000    -0.326000000
H    -5.297000000    -2.154000000     0.741000000
O     1.717000000     1.780000000    -4.733000000
H     1.894000000     1.176000000    -5.454000000
H     0.772000000     1.924000000    -4.767000000
O    -3.580000000     3.047000000    -4.916000000
H    -3.814000000     2.183000000    -4.575000000
H    -2.623000000     3.056000000    -4.907000000
O    -0.382000000    -3.579000000    -7.184000000
H    -0.626000000    -3.116000000    -6.382000000
H    -1.215000000    -3.882000000    -7.547000000
O     3.395000000    -0.458000000    -2.648000000
H     3.371000000     0.302000000    -2.067000000
H     4.283000000    -0.803000000    -2.555000000
O     0.923000000     4.393000000     0.305000000
H     0.698000000     4.029000000     1.161000000
H     1.312000000     3.660000000    -0.173000000
O     1.667000000    -1.833000000    -4.289000000
H     1.185000000    -1.120000000    -4.708000000
H     2.179000000    -1.406000000    -3.603000000
O    -4.178000000     0.289000000    -3.832000000
H    -4.404000000     0.418000000    -2.911000000
H    -3.237000000     0.460000000    -3.875000000
O     0.089000000     3.673000000     6.693000000
H     0.311000000     2.833000000     6.293000000
H     0.323000000     4.323000000     6.030000000
O     4.031000000     1.088000000    -0.419000000
H     4.409000000     1.966000000    -0.373000000
H     4.669000000     0.529000000     0.026000000
O    -1.880000000    -1.935000000     4.421000000
H    -0.923000000    -1.949000000     4.416000000
H    -2.122000000    -1.754000000     3.513000000
O    -1.738000000     2.700000000     3.091000000
H    -0.804000000     2.615000000     2.897000000
H    -2.031000000     3.427000000     2.542000000
O     1.360000000     2.627000000    -1.950000000
H     1.780000000     1.864000000    -1.552000000
H     1.419000000     2.469000000    -2.892000000
O    -1.477000000     5.388000000    -0.694000000
H    -1.466000000     5.833000000    -1.542000000
H    -0.553000000     5.288000000    -0.464000000
O     3.404000000    -3.616000000     1.112000000
H     4.013000000    -3.720000000     0.381000000
H     3.457000000    -2.687000000     1.338000000
O     2.302000000     5.330000000    -2.323000000
H     1.863000000     4.481000000    -2.265000000
H     3.138000000     5.197000000    -1.875000000
O    -3.374000000    -5.320000000    -0.093000000
H    -4.176000000    -5.793000000    -0.313000000
H    -2.876000000    -5.298000000    -0.910000000
O    -6.497000000     2.639000000    -0.575000000
H    -7.320000000     2.817000000    -1.030000000
H    -5.846000000     3.161000000    -1.044000000
O     2.525000000    -3.551000000     5.165000000
H     2.812000000    -3.076000000     5.945000000
H     1.912000000    -2.955000000     4.734000000
O    -2.170000000    -1.472000000     1.674000000
H    -2.953000000    -0.925000000     1.622000000
H    -1.506000000    -0.988000000     1.183000000
