161
-3035.62996
C     0.411000000     0.822000000     1.151000000
H     0.882000000     1.494000000     1.863000000
C     0.875000000    -0.478000000     0.920000000
H     1.670000000    -0.771000000     1.601000000
C     0.405000000    -1.138000000    -0.159000000
C     0.973000000    -2.483000000    -0.565000000
H     1.504000000    -3.058000000     0.195000000
H     0.037000000    -3.025000000    -0.722000000
H     1.454000000    -2.585000000    -1.540000000
C    -0.601000000    -0.591000000    -0.936000000
H    -0.994000000    -1.208000000    -1.740000000
C    -1.078000000     0.704000000    -0.732000000
H    -1.681000000     1.228000000    -1.469000000
C    -0.563000000     1.414000000     0.336000000
C    -1.005000000     2.845000000     0.525000000
O    -1.937000000     3.346000000    -0.085000000
O    -0.347000000     3.490000000     1.355000000
O    -0.835000000    -2.151000000     3.794000000
H    -0.902000000    -1.664000000     4.616000000
H    -1.609000000    -2.714000000     3.785000000
O     1.181000000    -1.954000000    -5.647000000
H     1.479000000    -1.777000000    -6.540000000
H     1.950000000    -2.314000000    -5.205000000
O    -1.936000000     0.562000000    -6.484000000
H    -1.633000000    -0.252000000    -6.081000000
H    -1.258000000     1.203000000    -6.270000000
O    -3.688000000     3.920000000    -4.801000000
H    -3.944000000     4.794000000    -4.505000000
H    -3.142000000     3.578000000    -4.094000000
O     3.692000000     2.304000000     2.183000000
H     3.618000000     2.958000000     2.878000000
H     3.839000000     1.479000000     2.645000000
O     5.331000000    -1.052000000     3.618000000
H     5.846000000    -0.319000000     3.953000000
H     4.456000000    -0.687000000     3.480000000
O     1.052000000     5.239000000     3.092000000
H     0.653000000     5.994000000     2.658000000
H     0.777000000     4.488000000     2.567000000
O    -6.775000000     4.417000000     0.359000000
H    -7.036000000     4.656000000     1.248000000
H    -5.837000000     4.240000000     0.424000000
O    -2.188000000    -6.973000000    -1.095000000
H    -2.700000000    -7.627000000    -0.620000000
H    -1.893000000    -6.363000000    -0.419000000
O     3.846000000    -4.554000000    -3.881000000
H     3.508000000    -5.368000000    -3.508000000
H     4.149000000    -4.051000000    -3.125000000
O    -3.934000000     6.162000000    -2.116000000
H    -3.391000000     6.675000000    -1.518000000
H    -4.610000000     6.773000000    -2.410000000
O     3.495000000    -3.172000000     2.461000000
H     3.910000000    -2.521000000     3.027000000
H     4.224000000    -3.687000000     2.114000000
O     2.291000000     3.811000000     0.604000000
H     1.437000000     3.622000000     0.993000000
H     2.892000000     3.210000000     1.044000000
O     1.290000000    -4.330000000     5.166000000
H     0.494000000    -3.902000000     5.482000000
H     1.192000000    -4.346000000     4.214000000
O    -1.911000000     3.119000000     4.087000000
H    -2.722000000     3.573000000     3.856000000
H    -1.932000000     2.314000000     3.569000000
O     5.576000000    -4.703000000     1.210000000
H     6.124000000    -4.132000000     1.748000000
H     5.996000000    -5.561000000     1.268000000
O     1.006000000     3.573000000    -3.317000000
H     1.086000000     2.629000000    -3.179000000
H     0.316000000     3.845000000    -2.712000000
O     2.229000000    -6.269000000     2.028000000
H     1.581000000    -5.572000000     1.933000000
H     2.649000000    -6.324000000     1.169000000
O     0.139000000    -4.280000000    -4.575000000
H     0.337000000    -3.486000000    -5.071000000
H    -0.817000000    -4.318000000    -4.554000000
O    -4.211000000     4.472000000     0.998000000
H    -3.426000000     4.105000000     0.593000000
H    -4.159000000     5.411000000     0.815000000
O    -1.200000000    -5.474000000     1.297000000
H    -1.799000000    -5.680000000     2.014000000
H    -0.548000000    -4.892000000     1.688000000
O     0.747000000    -4.017000000     2.534000000
H     1.573000000    -3.693000000     2.175000000
H     0.410000000    -3.288000000     3.055000000
O     5.562000000    -0.692000000     0.548000000
H     5.954000000    -1.378000000     0.007000000
H     5.816000000    -0.919000000     1.443000000
O     1.421000000     0.875000000    -2.821000000
H     0.714000000     0.325000000    -2.484000000
H     2.212000000     0.351000000    -2.695000000
O    -3.691000000     0.507000000    -3.631000000
H    -4.445000000     0.289000000    -4.179000000
H    -2.935000000     0.385000000    -4.205000000
O    -0.466000000    -0.072000000     5.880000000
H    -0.160000000     0.507000000     5.182000000
H     0.119000000     0.110000000     6.616000000
O     2.655000000    -6.229000000    -0.609000000
H     2.167000000    -6.051000000    -1.414000000
H     3.147000000    -7.028000000    -0.799000000
O     0.791000000    -6.101000000    -2.708000000
H     0.124000000    -6.749000000    -2.934000000
H     0.597000000    -5.351000000    -3.271000000
O     5.219000000     1.902000000     0.078000000
H     4.763000000     2.081000000     0.900000000
H     5.557000000     1.012000000     0.181000000
O    -1.820000000     4.508000000    -2.439000000
H    -2.549000000     5.128000000    -2.413000000
H    -1.698000000     4.243000000    -1.528000000
O    -3.326000000     0.710000000     2.956000000
H    -2.631000000     0.181000000     2.563000000
H    -3.838000000     0.088000000     3.473000000
O     0.620000000     1.952000000     4.442000000
H    -0.172000000     2.438000000     4.216000000
H     0.957000000     2.392000000     5.222000000
O    -4.368000000    -1.245000000    -0.014000000
H    -3.510000000    -1.324000000     0.404000000
H    -4.510000000    -0.301000000    -0.093000000
O     0.265000000     5.992000000     0.171000000
H    -0.398000000     5.349000000     0.421000000
H     1.012000000     5.467000000    -0.116000000
O    -2.312000000    -4.165000000    -3.476000000
H    -3.073000000    -4.616000000    -3.842000000
H    -2.366000000    -4.329000000    -2.535000000
O     0.803000000     8.170000000     1.689000000
H     0.727000000     7.588000000     0.933000000
H     1.745000000     8.293000000     1.802000000
O    -3.320000000    -4.225000000    -1.071000000
H    -3.887000000    -3.760000000    -0.456000000
H    -2.524000000    -4.409000000    -0.571000000
O    -4.029000000     1.465000000    -0.901000000
H    -3.455000000     2.225000000    -1.002000000
H    -3.958000000     1.000000000    -1.734000000
O     3.006000000     0.230000000     4.210000000
H     2.168000000     0.667000000     4.058000000
H     2.904000000    -0.194000000     5.062000000
O    -2.204000000    -1.214000000     1.461000000
H    -1.588000000    -1.728000000     1.983000000
H    -1.654000000    -0.750000000     0.830000000
O    -5.951000000     1.551000000     1.047000000
H    -5.527000000     2.041000000     0.343000000
H    -5.237000000     1.324000000     1.644000000
O    -1.780000000     7.631000000    -0.772000000
H    -1.033000000     7.133000000    -0.440000000
H    -1.454000000     8.527000000    -0.851000000
O    -1.444000000    -1.552000000    -4.738000000
H    -1.516000000    -2.264000000    -4.103000000
H    -0.610000000    -1.709000000    -5.181000000
O     3.810000000    -1.615000000    -2.880000000
H     3.671000000    -2.061000000    -2.045000000
H     4.385000000    -0.880000000    -2.668000000
O     4.009000000    -4.027000000    -1.209000000
H     4.892000000    -4.054000000    -0.842000000
H     3.529000000    -4.701000000    -0.728000000
O    -3.870000000     6.987000000     0.754000000
H    -3.615000000     7.023000000     1.675000000
H    -3.065000000     7.180000000     0.274000000
O    -4.900000000     3.041000000     3.579000000
H    -4.389000000     2.258000000     3.374000000
H    -4.938000000     3.524000000     2.754000000
O    -5.322000000    -1.656000000    -2.821000000
H    -5.887000000    -0.899000000    -2.979000000
H    -4.710000000    -1.361000000    -2.147000000
