161
-3039.37359
C     0.061000000     1.395000000    -0.374000000
H    -0.009000000     2.471000000    -0.514000000
C     0.253000000     0.964000000     0.930000000
H     0.477000000     1.558000000     1.812000000
C     0.280000000    -0.424000000     1.123000000
C     0.551000000    -0.988000000     2.460000000
H     0.755000000    -2.060000000     2.428000000
H     1.436000000    -0.450000000     2.808000000
H    -0.336000000    -0.831000000     3.076000000
C    -0.010000000    -1.333000000     0.058000000
H     0.081000000    -2.398000000     0.253000000
C    -0.309000000    -0.849000000    -1.189000000
H    -0.390000000    -1.551000000    -2.015000000
C    -0.330000000     0.504000000    -1.434000000
C    -0.697000000     1.190000000    -2.772000000
O    -0.882000000     0.404000000    -3.751000000
O    -0.938000000     2.404000000    -2.904000000
O    -1.746000000    -4.735000000    -5.258000000
H    -0.796000000    -4.631000000    -5.306000000
H    -2.083000000    -3.839000000    -5.227000000
O    -1.004000000     6.950000000     1.439000000
H    -0.310000000     7.513000000     1.098000000
H    -0.937000000     7.035000000     2.390000000
O     2.833000000     0.050000000    -2.959000000
H     3.206000000    -0.174000000    -2.106000000
H     3.181000000     0.921000000    -3.151000000
O    -2.071000000    -0.181000000    -7.505000000
H    -2.974000000    -0.193000000    -7.824000000
H    -2.031000000     0.581000000    -6.928000000
O     1.179000000    -3.858000000    -5.728000000
H     1.295000000    -3.337000000    -6.522000000
H     1.482000000    -3.289000000    -5.021000000
O    -3.373000000    -3.878000000     3.683000000
H    -2.513000000    -4.145000000     3.359000000
H    -3.988000000    -4.464000000     3.242000000
O     0.256000000     2.026000000     4.975000000
H     0.975000000     1.496000000     5.318000000
H     0.579000000     2.926000000     5.022000000
O    -2.267000000     1.700000000    -5.669000000
H    -1.829000000     1.241000000    -4.952000000
H    -2.916000000     2.255000000    -5.237000000
O    -1.456000000     4.320000000     0.715000000
H    -0.605000000     3.986000000     1.000000000
H    -1.381000000     5.270000000     0.801000000
O    -4.361000000     5.057000000     0.020000000
H    -3.744000000     4.775000000    -0.655000000
H    -4.135000000     4.530000000     0.786000000
O     2.301000000    -6.608000000    -2.417000000
H     2.676000000    -6.036000000    -3.086000000
H     1.619000000    -6.079000000    -2.004000000
O     3.064000000     3.803000000     4.831000000
H     3.611000000     3.125000000     4.433000000
H     3.358000000     4.618000000     4.424000000
O     3.063000000    -2.737000000     0.966000000
H     3.872000000    -2.853000000     1.464000000
H     2.368000000    -2.982000000     1.576000000
O     1.528000000     4.283000000     2.313000000
H     1.352000000     4.001000000     3.211000000
H     2.309000000     4.832000000     2.384000000
O    -1.176000000    -4.655000000     1.366000000
H    -0.855000000    -4.293000000     2.192000000
H    -0.963000000    -5.587000000     1.415000000
O     3.533000000     0.002000000    -7.455000000
H     4.268000000     0.330000000    -6.936000000
H     2.755000000     0.310000000    -6.990000000
O     0.037000000    -5.060000000    -1.985000000
H     0.312000000    -4.149000000    -2.090000000
H    -0.919000000    -5.022000000    -1.967000000
O    -4.415000000    -3.315000000    -4.455000000
H    -3.792000000    -2.683000000    -4.813000000
H    -4.941000000    -2.809000000    -3.836000000
O     0.737000000    -6.885000000     1.009000000
H     0.285000000    -6.969000000     0.170000000
H     1.586000000    -6.503000000     0.786000000
O     4.805000000     2.520000000     3.204000000
H     5.646000000     2.200000000     2.877000000
H     4.254000000     2.585000000     2.424000000
O     1.311000000     0.508000000    -5.423000000
H     0.549000000     0.359000000    -4.863000000
H     2.061000000     0.303000000    -4.866000000
O    -4.804000000    -1.134000000     3.640000000
H    -4.282000000    -1.912000000     3.443000000
H    -4.778000000    -0.618000000     2.834000000
O    -0.016000000    -4.581000000     4.058000000
H    -0.525000000    -5.389000000     4.133000000
H     0.748000000    -4.727000000     4.616000000
O    -5.298000000    -2.422000000    -0.360000000
H    -4.558000000    -2.327000000     0.240000000
H    -5.453000000    -3.365000000    -0.401000000
O    -4.375000000     3.043000000    -4.635000000
H    -5.196000000     2.562000000    -4.540000000
H    -4.470000000     3.518000000    -5.461000000
O    -2.810000000    -2.480000000     0.802000000
H    -2.245000000    -1.729000000     0.620000000
H    -2.207000000    -3.220000000     0.877000000
O    -3.250000000     2.359000000     0.306000000
H    -3.307000000     2.397000000    -0.649000000
H    -2.525000000     2.944000000     0.527000000
O    -2.901000000     1.497000000     2.909000000
H    -3.310000000     2.298000000     3.237000000
H    -2.986000000     1.557000000     1.958000000
O     3.738000000    -0.273000000    -0.444000000
H     3.362000000    -0.978000000     0.084000000
H     3.372000000     0.528000000    -0.069000000
O     0.252000000     2.897000000    -6.292000000
H    -0.478000000     2.710000000    -5.702000000
H     0.877000000     2.190000000    -6.131000000
O     1.856000000    -2.499000000    -3.310000000
H     2.460000000    -3.013000000    -2.774000000
H     2.109000000    -1.590000000    -3.150000000
O     4.149000000    -0.794000000     3.841000000
H     5.089000000    -0.670000000     3.971000000
H     3.823000000     0.074000000     3.604000000
O     1.511000000    -0.277000000     5.783000000
H     2.120000000    -0.726000000     5.197000000
H     0.911000000    -0.963000000     6.077000000
O    -2.077000000    -2.068000000    -4.874000000
H    -1.491000000    -1.554000000    -4.317000000
H    -2.166000000    -1.547000000    -5.672000000
O    -1.226000000     7.819000000    -2.775000000
H    -1.305000000     7.047000000    -2.214000000
H    -0.457000000     8.280000000    -2.440000000
O    -0.499000000    -2.428000000     6.457000000
H    -0.666000000    -2.813000000     5.597000000
H    -1.314000000    -1.981000000     6.683000000
O     3.482000000     4.918000000    -3.621000000
H     3.693000000     5.848000000    -3.537000000
H     2.569000000     4.853000000    -3.340000000
O    -5.302000000     0.247000000     1.069000000
H    -4.755000000     0.899000000     0.631000000
H    -5.382000000    -0.464000000     0.433000000
O     3.704000000    -3.397000000    -1.587000000
H     3.687000000    -2.978000000    -0.726000000
H     4.541000000    -3.859000000    -1.612000000
O     0.974000000     4.377000000    -2.940000000
H     1.166000000     4.469000000    -2.007000000
H     0.154000000     3.883000000    -2.969000000
O    -3.144000000     3.836000000    -2.230000000
H    -3.512000000     3.560000000    -3.070000000
H    -2.215000000     3.617000000    -2.292000000
O    -2.802000000    -3.884000000    -2.147000000
H    -2.851000000    -2.950000000    -1.944000000
H    -3.524000000    -4.034000000    -2.758000000
O    -2.628000000    -0.732000000     7.428000000
H    -2.362000000    -0.251000000     6.644000000
H    -3.403000000    -1.224000000     7.156000000
O     3.460000000     2.681000000     0.744000000
H     2.713000000     3.142000000     0.361000000
H     4.221000000     3.040000000     0.288000000
O     0.480000000     5.658000000    -5.794000000
H     0.701000000     4.866000000    -6.283000000
H     0.902000000     5.540000000    -4.943000000
O    -2.106000000     0.587000000     5.301000000
H    -1.280000000     1.051000000     5.162000000
H    -2.514000000     0.560000000     4.436000000
O    -3.112000000    -6.245000000    -0.179000000
H    -3.502000000    -5.824000000    -0.946000000
H    -2.423000000    -5.642000000     0.100000000
O     1.827000000     4.886000000    -0.432000000
H     1.551000000     4.962000000     0.481000000
H     2.428000000     5.619000000    -0.562000000
