161
-3043.31852
C     0.423000000     1.371000000     0.083000000
H     0.834000000     2.377000000     0.043000000
C     1.010000000     0.270000000     0.699000000
H     1.973000000     0.384000000     1.191000000
C     0.539000000    -1.025000000     0.485000000
C     1.266000000    -2.074000000     1.174000000
H     1.377000000    -1.781000000     2.220000000
H     0.730000000    -2.976000000     1.473000000
H     2.153000000    -2.432000000     0.646000000
C    -0.621000000    -1.150000000    -0.140000000
H    -1.150000000    -2.094000000    -0.034000000
C    -1.220000000    -0.103000000    -0.907000000
H    -2.098000000    -0.225000000    -1.535000000
C    -0.718000000     1.175000000    -0.703000000
C    -1.382000000     2.413000000    -1.336000000
O    -2.063000000     2.324000000    -2.385000000
O    -1.051000000     3.543000000    -0.973000000
O    -1.162000000     8.353000000    -0.974000000
H    -1.216000000     7.573000000    -1.525000000
H    -0.648000000     8.975000000    -1.489000000
O    -2.697000000    -4.037000000    -2.513000000
H    -3.477000000    -4.372000000    -2.069000000
H    -1.981000000    -4.212000000    -1.902000000
O     2.115000000     5.097000000    -3.749000000
H     1.405000000     4.485000000    -3.552000000
H     1.747000000     5.687000000    -4.407000000
O     3.836000000    -5.890000000    -0.186000000
H     3.918000000    -5.421000000     0.644000000
H     3.225000000    -5.361000000    -0.700000000
O    -4.368000000    -2.411000000     2.027000000
H    -5.236000000    -2.031000000     2.164000000
H    -3.803000000    -1.660000000     1.848000000
O    -4.734000000    -0.904000000    -5.289000000
H    -5.232000000    -0.320000000    -4.717000000
H    -3.845000000    -0.549000000    -5.277000000
O    -0.777000000    -5.150000000    -0.512000000
H    -1.381000000    -5.872000000    -0.689000000
H    -1.161000000    -4.695000000     0.238000000
O    -0.484000000    -1.982000000     5.148000000
H    -0.390000000    -2.518000000     5.935000000
H    -0.840000000    -1.152000000     5.465000000
O     2.134000000    -5.424000000     3.484000000
H     1.323000000    -4.918000000     3.542000000
H     2.726000000    -4.870000000     2.975000000
O    -3.664000000     4.224000000    -3.332000000
H    -3.263000000     4.782000000    -3.998000000
H    -3.119000000     3.438000000    -3.317000000
O     4.193000000     1.530000000     2.287000000
H     3.533000000     2.163000000     2.004000000
H     4.704000000     1.997000000     2.948000000
O    -3.468000000    -3.556000000     4.925000000
H    -2.742000000    -3.425000000     4.314000000
H    -3.647000000    -4.495000000     4.886000000
O     3.476000000     3.576000000    -1.733000000
H     3.079000000     4.037000000    -2.472000000
H     3.443000000     2.652000000    -1.980000000
O    -0.449000000    -6.964000000     2.786000000
H     0.318000000    -7.538000000     2.787000000
H    -0.138000000    -6.148000000     3.177000000
O     0.146000000     3.325000000    -3.899000000
H    -0.250000000     3.377000000    -4.769000000
H    -0.575000000     3.071000000    -3.323000000
O    -1.274000000    -2.095000000    -4.385000000
H    -1.701000000    -1.274000000    -4.630000000
H    -1.922000000    -2.551000000    -3.848000000
O    -0.154000000    -4.381000000     3.591000000
H    -0.424000000    -4.115000000     2.713000000
H    -0.224000000    -3.583000000     4.116000000
O     2.439000000    -1.209000000     5.760000000
H     1.651000000    -1.694000000     6.005000000
H     3.048000000    -1.361000000     6.482000000
O     4.725000000    -1.876000000    -1.310000000
H     5.156000000    -2.361000000    -0.607000000
H     4.873000000    -2.406000000    -2.093000000
O     1.265000000    -2.146000000    -2.996000000
H     0.445000000    -2.233000000    -3.483000000
H     1.452000000    -1.207000000    -3.007000000
O    -4.882000000     2.320000000    -1.188000000
H    -4.227000000     2.748000000    -1.739000000
H    -4.948000000     1.433000000    -1.540000000
O    -3.728000000     7.277000000     0.611000000
H    -3.789000000     6.507000000     0.046000000
H    -2.931000000     7.723000000     0.323000000
O    -1.886000000     6.344000000     3.204000000
H    -1.123000000     5.855000000     2.896000000
H    -1.749000000     7.233000000     2.875000000
O     4.390000000    -1.291000000     2.854000000
H     4.825000000    -1.409000000     3.698000000
H     4.216000000    -0.351000000     2.803000000
O     0.105000000     0.798000000     3.836000000
H     0.406000000    -0.110000000     3.863000000
H    -0.072000000     1.019000000     4.750000000
O    -6.010000000     1.327000000    -4.119000000
H    -6.147000000     2.010000000    -3.463000000
H    -6.608000000     1.556000000    -4.831000000
O    -3.208000000     4.973000000    -0.845000000
H    -2.374000000     4.587000000    -0.577000000
H    -3.253000000     4.814000000    -1.788000000
O     3.002000000     3.909000000     0.972000000
H     3.372000000     3.728000000     0.108000000
H     2.431000000     4.665000000     0.834000000
O    -2.253000000     0.596000000    -4.449000000
H    -1.719000000     1.097000000    -5.066000000
H    -2.209000000     1.096000000    -3.634000000
O     3.722000000    -3.538000000    -3.819000000
H     3.557000000    -4.398000000    -3.432000000
H     2.928000000    -3.036000000    -3.635000000
O     1.700000000    -4.827000000    -1.662000000
H     1.632000000    -3.936000000    -2.006000000
H     0.861000000    -4.979000000    -1.226000000
O    -3.973000000     2.764000000    -5.940000000
H    -4.794000000     2.854000000    -6.423000000
H    -4.035000000     1.905000000    -5.521000000
O     3.939000000    -4.082000000     1.843000000
H     4.082000000    -3.186000000     2.149000000
H     4.710000000    -4.563000000     2.143000000
O     1.930000000     6.353000000    -0.129000000
H     2.068000000     6.953000000     0.603000000
H     2.386000000     6.763000000    -0.864000000
O    -2.055000000    -3.858000000     1.451000000
H    -2.645000000    -3.143000000     1.688000000
H    -2.403000000    -4.620000000     1.914000000
O    -2.036000000     4.682000000    -5.710000000
H    -2.909000000     4.333000000    -5.891000000
H    -1.498000000     4.373000000    -6.439000000
O    -0.437000000     1.702000000    -6.316000000
H     0.478000000     1.464000000    -6.165000000
H    -0.401000000     2.361000000    -7.009000000
O     6.628000000    -1.362000000     1.142000000
H     5.829000000    -1.395000000     1.667000000
H     6.747000000    -0.433000000     0.945000000
O     4.062000000     3.630000000     4.031000000
H     3.173000000     3.443000000     3.730000000
H     4.025000000     3.503000000     4.979000000
O     3.690000000     1.619000000    -3.936000000
H     3.642000000     1.146000000    -3.105000000
H     2.966000000     1.265000000    -4.454000000
O     0.987000000     3.694000000     3.513000000
H     1.006000000     2.746000000     3.376000000
H     0.611000000     4.045000000     2.706000000
O     3.088000000     0.177000000    -1.687000000
H     2.403000000     0.051000000    -1.031000000
H     3.714000000    -0.527000000    -1.518000000
O     1.809000000     1.343000000     6.548000000
H     2.171000000     1.137000000     7.410000000
H     1.883000000     0.526000000     6.055000000
O    -2.903000000    -0.290000000     1.954000000
H    -2.082000000     0.100000000     1.653000000
H    -3.539000000     0.424000000     1.908000000
O    -1.693000000     6.781000000    -4.170000000
H    -1.202000000     6.462000000    -3.413000000
H    -1.870000000     5.996000000    -4.688000000
O    -0.313000000     5.995000000    -2.002000000
H     0.526000000     6.248000000    -1.616000000
H    -0.442000000     5.089000000    -1.721000000
O    -5.780000000     6.229000000    -1.657000000
H    -5.134000000     5.537000000    -1.515000000
H    -6.313000000     6.226000000    -0.861000000
O    -0.432000000     4.963000000     1.350000000
H    -0.336000000     5.870000000     1.057000000
H    -0.558000000     4.463000000     0.544000000
