161
-3044.70160
C     0.133000000     1.264000000     0.724000000
H     0.369000000     2.151000000     1.307000000
C     0.882000000     0.143000000     0.867000000
H     1.715000000     0.185000000     1.564000000
C     0.557000000    -1.073000000     0.266000000
C     1.486000000    -2.235000000     0.490000000
H     0.980000000    -3.124000000     0.108000000
H     2.452000000    -1.960000000     0.062000000
H     1.645000000    -2.326000000     1.566000000
C    -0.484000000    -1.147000000    -0.649000000
H    -0.815000000    -2.006000000    -1.228000000
C    -1.186000000     0.077000000    -0.934000000
H    -2.016000000     0.096000000    -1.636000000
C    -0.843000000     1.296000000    -0.273000000
C    -1.520000000     2.572000000    -0.621000000
O    -2.463000000     2.582000000    -1.385000000
O    -0.884000000     3.505000000    -0.224000000
O    -2.075000000     7.624000000     0.306000000
H    -1.494000000     6.944000000    -0.035000000
H    -2.203000000     8.222000000    -0.430000000
O    -3.350000000    -3.883000000    -3.434000000
H    -3.920000000    -4.265000000    -4.100000000
H    -2.875000000    -4.629000000    -3.068000000
O     0.131000000     6.000000000    -4.398000000
H    -0.589000000     5.633000000    -3.886000000
H     0.173000000     5.451000000    -5.181000000
O     3.546000000    -4.657000000    -2.060000000
H     3.789000000    -5.487000000    -2.469000000
H     2.596000000    -4.712000000    -1.953000000
O    -5.109000000    -2.230000000     0.610000000
H    -5.022000000    -2.259000000    -0.342000000
H    -5.996000000    -1.903000000     0.759000000
O    -2.235000000    -5.043000000     0.039000000
H    -3.191000000    -5.089000000     0.034000000
H    -2.036000000    -4.250000000     0.536000000
O     1.520000000    -5.316000000     3.154000000
H     1.012000000    -4.594000000     3.525000000
H     2.206000000    -4.887000000     2.642000000
O    -4.451000000     4.140000000    -0.371000000
H    -5.123000000     4.186000000    -1.051000000
H    -3.683000000     3.782000000    -0.816000000
O     2.984000000     1.155000000     3.277000000
H     3.149000000     1.647000000     2.473000000
H     3.257000000     1.745000000     3.980000000
O     6.935000000    -3.776000000     0.080000000
H     6.869000000    -3.495000000    -0.832000000
H     6.185000000    -4.356000000     0.208000000
O     1.955000000     3.406000000    -1.044000000
H     1.038000000     3.519000000    -0.796000000
H     1.969000000     2.594000000    -1.551000000
O    -6.729000000    -0.013000000     1.036000000
H    -7.328000000     0.546000000     0.540000000
H    -5.898000000     0.050000000     0.565000000
O    -0.289000000    -7.259000000     2.599000000
H     0.407000000    -6.657000000     2.864000000
H    -0.327000000    -7.906000000     3.304000000
O    -2.717000000     6.260000000    -2.925000000
H    -2.912000000     5.640000000    -2.222000000
H    -2.519000000     5.709000000    -3.682000000
O    -1.333000000     3.925000000    -3.459000000
H    -1.276000000     3.127000000    -3.985000000
H    -1.338000000     3.614000000    -2.553000000
O    -1.708000000    -1.697000000    -4.865000000
H    -1.679000000    -1.877000000    -5.804000000
H    -2.268000000    -2.386000000    -4.506000000
O     0.118000000    -3.194000000     4.081000000
H     0.573000000    -2.373000000     4.266000000
H    -0.716000000    -3.116000000     4.545000000
O    -1.804000000    -6.134000000    -2.465000000
H    -2.646000000    -6.590000000    -2.439000000
H    -1.684000000    -5.804000000    -1.575000000
O     1.025000000    -0.499000000     4.336000000
H     1.314000000    -0.280000000     5.222000000
H     1.580000000     0.032000000     3.765000000
O     3.752000000    -1.865000000    -3.094000000
H     4.213000000    -1.840000000    -2.255000000
H     3.111000000    -2.569000000    -2.994000000
O     1.093000000    -3.002000000    -4.008000000
H     0.153000000    -2.828000000    -3.955000000
H     1.260000000    -3.127000000    -4.943000000
O     3.601000000     4.477000000    -3.158000000
H     3.038000000     4.103000000    -2.480000000
H     3.040000000     5.103000000    -3.616000000
O     6.081000000    -3.927000000    -2.649000000
H     6.307000000    -4.846000000    -2.507000000
H     5.177000000    -3.852000000    -2.342000000
O    -4.632000000     0.768000000    -0.430000000
H    -4.497000000    -0.026000000    -0.947000000
H    -4.183000000     1.455000000    -0.924000000
O    -5.340000000     3.020000000     2.111000000
H    -4.595000000     2.718000000     2.631000000
H    -4.961000000     3.259000000     1.265000000
O    -2.845000000     6.114000000     2.956000000
H    -2.290000000     5.367000000     2.731000000
H    -2.645000000     6.771000000     2.289000000
O     4.745000000    -1.039000000     2.084000000
H     4.424000000    -0.391000000     2.710000000
H     5.172000000    -1.704000000     2.624000000
O    -2.805000000     1.871000000     3.102000000
H    -3.301000000     1.767000000     3.914000000
H    -2.697000000     0.979000000     2.771000000
O    -4.567000000    -1.692000000    -2.083000000
H    -4.072000000    -2.298000000    -2.634000000
H    -5.411000000    -1.600000000    -2.525000000
O    -5.820000000     3.869000000    -3.202000000
H    -6.592000000     3.313000000    -3.307000000
H    -6.131000000     4.751000000    -3.402000000
O    -1.373000000     4.082000000     2.561000000
H    -1.905000000     3.329000000     2.817000000
H    -1.193000000     3.944000000     1.631000000
O     3.175000000     3.140000000     1.293000000
H     2.830000000     3.432000000     0.449000000
H     3.183000000     3.930000000     1.834000000
O    -3.937000000     1.973000000    -3.473000000
H    -3.340000000     2.124000000    -2.740000000
H    -4.761000000     2.374000000    -3.198000000
O     1.011000000    -5.908000000    -2.117000000
H     1.285000000    -6.323000000    -2.934000000
H     0.067000000    -5.789000000    -2.213000000
O     3.343000000    -4.541000000     5.411000000
H     2.707000000    -4.097000000     4.852000000
H     3.066000000    -4.331000000     6.303000000
O    -4.291000000     0.279000000    -5.653000000
H    -3.551000000    -0.268000000    -5.387000000
H    -4.225000000     1.056000000    -5.098000000
O     5.165000000     1.804000000    -0.377000000
H     5.550000000     2.353000000     0.306000000
H     4.235000000     2.029000000    -0.369000000
O     3.574000000    -4.229000000     1.967000000
H     4.140000000    -3.464000000     1.861000000
H     4.083000000    -4.955000000     1.607000000
O    -3.195000000    -3.362000000     2.174000000
H    -2.887000000    -2.476000000     2.364000000
H    -4.069000000    -3.238000000     1.804000000
O     2.104000000    -8.156000000    -0.518000000
H     1.572000000    -8.930000000    -0.706000000
H     1.562000000    -7.419000000    -0.798000000
O    -2.201000000     2.993000000    -6.341000000
H    -2.458000000     2.551000000    -5.532000000
H    -1.347000000     3.378000000    -6.143000000
O    -1.045000000     1.008000000    -4.294000000
H    -0.281000000     1.134000000    -4.857000000
H    -1.160000000     0.059000000    -4.255000000
O     5.031000000    -0.997000000    -0.619000000
H     4.793000000    -1.173000000     0.291000000
H     5.194000000    -0.054000000    -0.645000000
O     1.524000000     2.285000000    -4.597000000
H     1.411000000     1.725000000    -3.829000000
H     2.337000000     1.979000000    -5.000000000
O    -0.252000000     4.256000000     5.444000000
H     0.039000000     5.135000000     5.203000000
H    -0.640000000     3.903000000     4.643000000
O     1.702000000     0.583000000    -2.550000000
H     1.117000000     0.257000000    -1.866000000
H     2.281000000    -0.154000000    -2.742000000
O    -1.713000000    -0.617000000     2.203000000
H    -0.792000000    -0.569000000     2.462000000
H    -1.689000000    -0.688000000     1.249000000
O    -0.141000000     6.016000000    -0.428000000
H     0.613000000     6.152000000    -1.002000000
H    -0.150000000     5.073000000    -0.264000000
