161
-3032.84923
C     0.258000000     1.308000000     0.587000000
H     0.557000000     2.164000000     1.185000000
C     0.642000000     0.082000000     1.121000000
H     1.240000000     0.036000000     2.027000000
C     0.396000000    -1.091000000     0.482000000
C     0.714000000    -2.397000000     1.041000000
H     0.963000000    -3.191000000     0.335000000
H     1.495000000    -2.259000000     1.792000000
H    -0.171000000    -2.723000000     1.590000000
C    -0.238000000    -1.055000000    -0.762000000
H    -0.475000000    -1.951000000    -1.331000000
C    -0.673000000     0.193000000    -1.260000000
H    -1.268000000     0.238000000    -2.168000000
C    -0.527000000     1.422000000    -0.538000000
C    -0.938000000     2.715000000    -1.182000000
O    -1.485000000     2.751000000    -2.227000000
O    -0.488000000     3.750000000    -0.699000000
O    -3.436000000    -2.097000000     3.187000000
H    -3.468000000    -3.029000000     2.968000000
H    -2.744000000    -1.743000000     2.629000000
O     5.828000000    -3.923000000     4.462000000
H     5.210000000    -3.457000000     3.899000000
H     6.127000000    -3.263000000     5.087000000
O     3.417000000    -4.565000000    -1.070000000
H     3.616000000    -4.029000000    -0.302000000
H     2.990000000    -5.345000000    -0.714000000
O    -2.120000000     5.753000000     3.803000000
H    -2.231000000     5.489000000     2.890000000
H    -1.266000000     5.400000000     4.052000000
O    -0.986000000     5.977000000     0.573000000
H    -1.939000000     6.050000000     0.530000000
H    -0.782000000     5.205000000     0.045000000
O    -2.547000000     3.333000000     1.361000000
H    -2.954000000     2.476000000     1.239000000
H    -1.736000000     3.287000000     0.854000000
O    -3.447000000    -4.570000000     2.039000000
H    -3.024000000    -5.240000000     2.577000000
H    -4.378000000    -4.785000000     2.076000000
O     1.471000000     1.409000000    -6.319000000
H     0.969000000     1.888000000    -5.659000000
H     1.095000000     1.686000000    -7.154000000
O     0.011000000     2.804000000    -4.494000000
H     0.213000000     3.735000000    -4.592000000
H    -0.701000000     2.780000000    -3.855000000
O    -0.813000000    -5.064000000    -1.269000000
H    -0.029000000    -4.697000000    -1.677000000
H    -0.494000000    -5.821000000    -0.777000000
O    -4.472000000     3.450000000    -1.428000000
H    -3.606000000     3.293000000    -1.805000000
H    -4.762000000     2.589000000    -1.127000000
O    -3.163000000     1.755000000    -4.182000000
H    -2.674000000     2.143000000    -3.456000000
H    -3.893000000     1.299000000    -3.763000000
O    -4.504000000     6.112000000    -2.229000000
H    -4.496000000     5.237000000    -1.843000000
H    -4.627000000     6.701000000    -1.485000000
O    -5.125000000     1.528000000     0.545000000
H    -5.451000000     1.217000000     1.389000000
H    -4.624000000     0.791000000     0.195000000
O    -2.109000000     0.135000000     1.927000000
H    -1.957000000     0.364000000     2.844000000
H    -1.235000000     0.111000000     1.538000000
O     3.499000000     4.325000000    -1.055000000
H     2.852000000     4.632000000    -1.690000000
H     3.920000000     3.579000000    -1.483000000
O     1.916000000     1.041000000    -3.233000000
H     1.385000000     1.804000000    -3.462000000
H     2.065000000     1.126000000    -2.291000000
O    -0.795000000    -7.008000000     0.968000000
H    -1.313000000    -6.771000000     1.737000000
H    -1.217000000    -7.797000000     0.628000000
O     2.489000000    -2.883000000    -5.489000000
H     1.900000000    -2.433000000    -4.883000000
H     3.362000000    -2.570000000    -5.251000000
O    -2.884000000     2.476000000    -7.065000000
H    -2.670000000     2.311000000    -6.146000000
H    -3.230000000     1.643000000    -7.384000000
O     0.269000000     7.791000000     1.978000000
H    -0.201000000     7.062000000     1.573000000
H     0.140000000     8.523000000     1.376000000
O    -3.513000000    -2.302000000    -3.892000000
H    -4.441000000    -2.083000000    -3.980000000
H    -3.418000000    -2.581000000    -2.981000000
O     0.398000000     7.251000000    -4.487000000
H     0.188000000     7.044000000    -3.576000000
H    -0.035000000     8.090000000    -4.647000000
O    -4.908000000     0.550000000    -2.485000000
H    -5.825000000     0.693000000    -2.249000000
H    -4.628000000    -0.176000000    -1.928000000
O     1.993000000    -6.919000000    -1.352000000
H     1.630000000    -7.741000000    -1.023000000
H     2.230000000    -7.108000000    -2.260000000
O     1.323000000    -3.753000000    -2.586000000
H     1.083000000    -2.897000000    -2.942000000
H     2.169000000    -3.608000000    -2.162000000
O     3.794000000    -2.681000000     3.335000000
H     3.181000000    -2.511000000     4.050000000
H     4.100000000    -1.814000000     3.070000000
O     3.558000000    -4.961000000     1.837000000
H     3.248000000    -5.584000000     2.495000000
H     3.325000000    -4.103000000     2.191000000
O     3.168000000     0.921000000    -0.558000000
H     2.453000000     0.895000000     0.078000000
H     3.936000000     1.174000000    -0.046000000
O    -3.469000000     4.843000000    -5.494000000
H    -3.515000000     4.151000000    -4.835000000
H    -4.341000000     4.855000000    -5.890000000
O    -1.663000000    -0.444000000    -4.625000000
H    -2.213000000     0.324000000    -4.783000000
H    -2.283000000    -1.165000000    -4.516000000
O    -3.699000000    -0.747000000     0.006000000
H    -3.115000000    -0.374000000     0.665000000
H    -3.305000000    -1.592000000    -0.213000000
O    -2.811000000    -3.427000000    -0.708000000
H    -2.130000000    -4.031000000    -1.006000000
H    -3.158000000    -3.831000000     0.087000000
O     2.117000000    -2.058000000     5.212000000
H     1.806000000    -2.888000000     5.574000000
H     1.478000000    -1.412000000     5.514000000
O    -0.343000000    -1.101000000    -7.120000000
H    -0.620000000    -0.782000000    -6.261000000
H    -0.202000000    -0.307000000    -7.636000000
O     0.813000000     0.261000000     6.174000000
H     1.582000000     0.816000000     6.044000000
H     0.570000000     0.398000000     7.089000000
O     1.782000000    -7.122000000     1.727000000
H     2.158000000    -6.985000000     0.858000000
H     0.839000000    -7.019000000     1.600000000
O    -0.823000000     5.417000000    -6.264000000
H    -1.649000000     5.142000000    -5.864000000
H    -0.397000000     5.948000000    -5.591000000
O    -0.571000000    -4.757000000    -4.678000000
H     0.146000000    -4.422000000    -4.139000000
H    -0.234000000    -5.576000000    -5.041000000
O     0.563000000     4.974000000     3.536000000
H     1.110000000     4.966000000     2.751000000
H     1.121000000     4.606000000     4.221000000
O    -2.992000000    -6.369000000    -2.318000000
H    -3.702000000    -5.799000000    -2.611000000
H    -2.219000000    -5.804000000    -2.309000000
O     0.841000000    -1.365000000    -3.969000000
H     1.354000000    -0.618000000    -3.661000000
H    -0.045000000    -1.019000000    -4.076000000
O     4.916000000    -0.384000000     1.952000000
H     5.228000000     0.163000000     1.231000000
H     5.085000000     0.137000000     2.738000000
O     4.648000000    -1.058000000    -1.877000000
H     4.019000000    -0.513000000    -1.406000000
H     5.435000000    -0.517000000    -1.940000000
O     1.253000000     4.699000000    -2.547000000
H     0.999000000     5.620000000    -2.493000000
H     0.704000000     4.260000000    -1.898000000
O    -0.981000000     6.601000000    -2.195000000
H    -0.883000000     6.547000000    -1.244000000
H    -1.731000000     6.038000000    -2.390000000
O     1.773000000     4.398000000     1.013000000
H     2.456000000     4.484000000     0.349000000
H     0.963000000     4.298000000     0.513000000
O    -1.206000000     0.532000000     4.434000000
H    -0.386000000     0.311000000     4.875000000
H    -1.454000000     1.380000000     4.802000000
