161
-3083.05346
C     0.440000000     1.179000000     0.695000000
H     1.006000000     1.982000000     1.159000000
C     0.838000000    -0.097000000     0.981000000
H     1.674000000    -0.200000000     1.668000000
C     0.262000000    -1.185000000     0.330000000
C     0.719000000    -2.531000000     0.670000000
H     1.807000000    -2.584000000     0.586000000
H     0.531000000    -2.692000000     1.734000000
H     0.379000000    -3.253000000    -0.075000000
C    -0.559000000    -0.948000000    -0.833000000
H    -0.894000000    -1.764000000    -1.468000000
C    -0.974000000     0.389000000    -1.075000000
H    -1.647000000     0.561000000    -1.912000000
C    -0.522000000     1.437000000    -0.252000000
C    -0.944000000     2.856000000    -0.625000000
O    -1.519000000     3.082000000    -1.680000000
O    -0.604000000     3.761000000     0.092000000
O     5.755000000     1.976000000    -1.113000000
H     5.479000000     2.328000000    -0.266000000
H     6.339000000     1.251000000    -0.893000000
O    -2.322000000    -1.941000000     2.368000000
H    -2.008000000    -2.499000000     1.657000000
H    -2.914000000    -2.503000000     2.869000000
O     4.760000000    -2.724000000     2.301000000
H     4.525000000    -3.326000000     1.595000000
H     4.054000000    -2.817000000     2.940000000
O     2.442000000     1.409000000     4.254000000
H     1.490000000     1.449000000     4.161000000
H     2.760000000     2.190000000     3.801000000
O    -1.309000000    -4.776000000     5.506000000
H    -1.293000000    -4.580000000     6.443000000
H    -0.949000000    -3.993000000     5.091000000
O     4.971000000     3.312000000     1.112000000
H     4.052000000     3.576000000     1.060000000
H     5.046000000     2.873000000     1.959000000
O    -0.801000000     5.891000000    -2.447000000
H    -1.423000000     5.846000000    -3.172000000
H    -0.878000000     5.042000000    -2.012000000
O    -3.441000000    -4.257000000     3.485000000
H    -2.976000000    -4.305000000     4.321000000
H    -3.088000000    -4.985000000     2.973000000
O    -0.182000000    -5.627000000    -3.100000000
H    -0.049000000    -4.701000000    -3.303000000
H    -1.105000000    -5.786000000    -3.298000000
O    -1.156000000     4.026000000     2.750000000
H    -2.068000000     4.217000000     2.967000000
H    -1.132000000     4.021000000     1.793000000
O    -4.176000000     1.103000000    -5.360000000
H    -4.022000000     1.408000000    -4.466000000
H    -3.482000000     1.513000000    -5.876000000
O    -3.870000000     2.025000000    -2.425000000
H    -4.186000000     2.845000000    -2.803000000
H    -3.053000000     2.262000000    -1.987000000
O     1.672000000     6.600000000    -2.576000000
H     2.187000000     5.841000000    -2.302000000
H     0.763000000     6.311000000    -2.505000000
O    -1.701000000    -5.981000000     1.261000000
H    -0.811000000    -6.325000000     1.181000000
H    -2.233000000    -6.743000000     1.488000000
O     3.163000000    -0.589000000     5.958000000
H     2.544000000    -0.375000000     6.656000000
H     2.954000000     0.026000000     5.255000000
O    -3.972000000     0.692000000     0.317000000
H    -3.355000000     0.493000000    -0.387000000
H    -3.456000000     0.606000000     1.119000000
O    -3.557000000     7.673000000    -1.737000000
H    -3.442000000     6.885000000    -2.267000000
H    -2.741000000     8.161000000    -1.852000000
O     5.531000000    -2.296000000    -1.001000000
H     5.567000000    -1.944000000    -1.890000000
H     5.112000000    -1.606000000    -0.486000000
O     0.302000000    -2.524000000     4.601000000
H     1.137000000    -2.857000000     4.273000000
H    -0.002000000    -1.925000000     3.919000000
O     1.418000000     8.503000000    -0.497000000
H     2.262000000     8.871000000    -0.236000000
H     1.638000000     7.841000000    -1.153000000
O     0.161000000     2.503000000    -3.874000000
H    -0.449000000     2.332000000    -3.157000000
H     0.909000000     2.930000000    -3.456000000
O     0.434000000    -2.972000000    -3.455000000
H     1.090000000    -2.878000000    -2.764000000
H     0.341000000    -2.091000000    -3.818000000
O    -1.463000000     7.985000000     2.536000000
H    -1.487000000     7.383000000     1.792000000
H    -1.304000000     8.844000000     2.144000000
O     5.143000000     1.109000000     3.055000000
H     5.668000000     0.311000000     3.113000000
H     4.547000000     1.059000000     3.803000000
O    -4.054000000     5.737000000    -3.577000000
H    -4.917000000     5.327000000    -3.647000000
H    -3.900000000     6.119000000    -4.441000000
O    -4.525000000    -2.954000000    -2.166000000
H    -4.913000000    -2.079000000    -2.156000000
H    -4.873000000    -3.379000000    -1.382000000
O     1.791000000    -7.460000000    -2.432000000
H     0.979000000    -7.008000000    -2.659000000
H     2.447000000    -6.765000000    -2.384000000
O     2.893000000    -2.627000000    -2.074000000
H     2.959000000    -1.673000000    -2.089000000
H     3.467000000    -2.895000000    -1.356000000
O    -0.220000000    -1.788000000     7.349000000
H    -0.563000000    -2.663000000     7.530000000
H     0.050000000    -1.821000000     6.431000000
O     2.327000000    -6.533000000     3.435000000
H     1.756000000    -7.173000000     3.009000000
H     3.191000000    -6.944000000     3.433000000
O     3.584000000    -0.015000000    -1.579000000
H     4.242000000     0.673000000    -1.679000000
H     2.788000000     0.452000000    -1.323000000
O    -5.552000000    -0.314000000    -2.226000000
H    -6.453000000     0.009000000    -2.226000000
H    -5.013000000     0.477000000    -2.218000000
O    -3.805000000     4.420000000     3.316000000
H    -4.037000000     3.772000000     3.981000000
H    -4.589000000     4.495000000     2.772000000
O     2.798000000    -3.892000000     3.909000000
H     3.300000000    -3.899000000     4.725000000
H     2.499000000    -4.795000000     3.804000000
O     1.637000000     6.667000000     1.866000000
H     0.807000000     6.776000000     1.402000000
H     1.548000000     5.830000000     2.323000000
O    -0.832000000     6.449000000     0.300000000
H    -0.715000000     5.503000000     0.391000000
H    -0.754000000     6.611000000    -0.640000000
O    -3.511000000    -5.982000000    -1.123000000
H    -3.142000000    -5.651000000    -1.941000000
H    -2.792000000    -5.924000000    -0.494000000
O    -0.814000000     6.219000000     4.461000000
H    -1.082000000     6.893000000     3.836000000
H    -0.964000000     5.393000000     4.003000000
O     0.630000000    -0.464000000    -4.940000000
H    -0.083000000    -0.243000000    -5.540000000
H     0.788000000     0.343000000    -4.449000000
O     6.781000000    -1.056000000     3.051000000
H     7.589000000    -1.150000000     2.546000000
H     6.150000000    -1.616000000     2.598000000
O    -2.744000000    -5.007000000    -3.581000000
H    -3.293000000    -4.257000000    -3.355000000
H    -2.599000000    -4.923000000    -4.523000000
O    -2.572000000     0.714000000     2.772000000
H    -1.731000000     0.808000000     3.220000000
H    -2.606000000    -0.209000000     2.519000000
O     2.442000000     4.234000000     0.331000000
H     1.568000000     4.013000000     0.654000000
H     2.616000000     5.106000000     0.686000000
O    -0.200000000     1.799000000     4.253000000
H    -0.448000000     1.970000000     5.161000000
H    -0.540000000     2.549000000     3.765000000
O    -1.856000000     2.934000000    -5.838000000
H    -1.120000000     2.947000000    -5.227000000
H    -1.792000000     3.766000000    -6.308000000
O     2.356000000     3.589000000    -2.538000000
H     3.283000000     3.675000000    -2.761000000
H     2.344000000     3.539000000    -1.582000000
O    -6.239000000     2.349000000    -0.231000000
H    -5.974000000     3.223000000    -0.518000000
H    -5.438000000     1.827000000    -0.282000000
O     1.349000000     4.256000000     3.100000000
H     1.591000000     4.549000000     3.979000000
H     0.392000000     4.242000000     3.107000000
