161
-3025.53742
C     0.918000000     1.188000000     0.168000000
H     1.643000000     1.956000000     0.424000000
C     1.235000000    -0.128000000     0.573000000
H     2.176000000    -0.339000000     1.075000000
C     0.176000000    -1.052000000     0.497000000
C     0.502000000    -2.461000000     0.887000000
H     0.312000000    -3.123000000     0.039000000
H     1.560000000    -2.525000000     1.150000000
H    -0.117000000    -2.787000000     1.726000000
C    -1.011000000    -0.823000000    -0.164000000
H    -1.617000000    -1.725000000    -0.178000000
C    -1.329000000     0.436000000    -0.609000000
H    -2.300000000     0.619000000    -1.063000000
C    -0.340000000     1.412000000    -0.518000000
C    -0.531000000     2.744000000    -1.201000000
O    -1.506000000     2.985000000    -1.889000000
O     0.226000000     3.625000000    -0.918000000
O     6.750000000     2.247000000     0.963000000
H     7.259000000     2.854000000     0.427000000
H     5.850000000     2.567000000     0.899000000
O    -2.815000000    -1.669000000     3.411000000
H    -3.427000000    -1.493000000     2.696000000
H    -2.990000000    -2.578000000     3.657000000
O     4.672000000    -3.006000000     0.431000000
H     5.591000000    -2.828000000     0.633000000
H     4.239000000    -3.025000000     1.284000000
O    -1.072000000    -5.676000000    -4.960000000
H    -0.666000000    -5.577000000    -4.099000000
H    -1.554000000    -4.860000000    -5.093000000
O     2.239000000     3.604000000     2.919000000
H     1.318000000     3.604000000     2.660000000
H     2.231000000     3.889000000     3.833000000
O     4.326000000     3.495000000     1.107000000
H     4.074000000     3.876000000     0.266000000
H     3.544000000     3.579000000     1.652000000
O    -0.220000000     5.764000000    -2.346000000
H    -1.073000000     6.097000000    -2.624000000
H    -0.423000000     4.978000000    -1.839000000
O    -3.336000000    -4.398000000     4.369000000
H    -4.119000000    -3.934000000     4.665000000
H    -2.820000000    -4.530000000     5.164000000
O    -0.947000000     5.417000000     0.959000000
H    -1.820000000     5.066000000     0.785000000
H    -0.365000000     4.902000000     0.400000000
O    -1.098000000     1.764000000    -6.012000000
H    -1.649000000     2.191000000    -5.355000000
H    -0.989000000     2.424000000    -6.697000000
O    -2.097000000     3.415000000    -4.261000000
H    -2.509000000     4.278000000    -4.310000000
H    -1.986000000     3.256000000    -3.324000000
O     0.182000000    -5.490000000     0.861000000
H     1.083000000    -5.309000000     0.594000000
H     0.236000000    -6.315000000     1.343000000
O    -4.037000000     2.782000000    -1.413000000
H    -3.139000000     2.549000000    -1.650000000
H    -3.941000000     3.392000000    -0.682000000
O     4.891000000     5.375000000     3.474000000
H     4.783000000     4.492000000     3.122000000
H     4.051000000     5.572000000     3.889000000
O    -0.527000000    -5.854000000     4.664000000
H    -0.914000000    -5.149000000     5.183000000
H    -0.052000000    -6.387000000     5.301000000
O    -0.313000000    -2.657000000     4.971000000
H     0.496000000    -2.721000000     4.464000000
H    -0.941000000    -2.258000000     4.370000000
O    -4.602000000    -0.365000000     1.571000000
H    -4.958000000    -0.678000000     0.739000000
H    -4.551000000     0.585000000     1.467000000
O     0.339000000     9.325000000    -1.633000000
H     0.593000000     8.491000000    -1.239000000
H     0.921000000     9.421000000    -2.387000000
O     2.697000000     2.253000000    -5.771000000
H     2.435000000     2.452000000    -6.670000000
H     1.949000000     2.523000000    -5.238000000
O     1.174000000     2.709000000    -3.585000000
H     0.475000000     2.891000000    -2.956000000
H     1.782000000     2.143000000    -3.109000000
O     1.486000000    -4.611000000     3.170000000
H     1.126000000    -4.409000000     2.306000000
H     0.932000000    -5.319000000     3.500000000
O     1.082000000    -1.674000000    -2.583000000
H     0.600000000    -1.165000000    -1.932000000
H     0.756000000    -1.356000000    -3.425000000
O    -1.453000000     7.695000000     2.212000000
H    -1.229000000     7.018000000     1.575000000
H    -0.831000000     7.566000000     2.928000000
O     4.626000000     1.462000000     3.665000000
H     4.815000000     0.722000000     3.088000000
H     3.835000000     1.857000000     3.298000000
O    -3.113000000     5.811000000    -2.112000000
H    -3.528000000     6.644000000    -1.888000000
H    -3.179000000     5.288000000    -1.314000000
O    -2.993000000    -2.570000000    -2.764000000
H    -3.213000000    -1.749000000    -3.204000000
H    -3.811000000    -2.850000000    -2.355000000
O    -5.312000000    -1.630000000    -0.685000000
H    -5.251000000    -1.569000000    -1.638000000
H    -5.049000000    -2.528000000    -0.484000000
O     2.605000000    -5.021000000    -0.249000000
H     2.737000000    -5.173000000    -1.185000000
H     3.351000000    -4.483000000     0.014000000
O     3.752000000    -1.707000000    -1.965000000
H     2.809000000    -1.617000000    -2.103000000
H     3.828000000    -2.258000000    -1.186000000
O     0.853000000     0.131000000     5.951000000
H     1.256000000    -0.499000000     6.549000000
H     1.183000000    -0.115000000     5.086000000
O     3.526000000    -3.009000000     2.843000000
H     2.781000000    -3.556000000     3.094000000
H     4.280000000    -3.425000000     3.261000000
O     2.990000000     1.187000000    -2.099000000
H     3.008000000     0.374000000    -1.594000000
H     3.323000000     1.851000000    -1.495000000
O    -3.622000000    -0.217000000    -4.020000000
H    -3.228000000     0.385000000    -4.651000000
H    -4.129000000     0.347000000    -3.435000000
O    -3.534000000     4.528000000     0.468000000
H    -3.673000000     4.231000000     1.368000000
H    -4.055000000     5.327000000     0.396000000
O    -4.127000000    -3.928000000    -0.116000000
H    -4.668000000    -4.716000000    -0.073000000
H    -3.288000000    -4.193000000     0.263000000
O     1.775000000    -1.067000000     3.818000000
H     2.666000000    -1.401000000     3.720000000
H     1.452000000    -0.980000000     2.922000000
O    -0.837000000    -7.649000000     2.191000000
H    -1.243000000    -6.964000000     2.722000000
H    -1.038000000    -8.462000000     2.654000000
O     2.539000000     7.646000000     2.017000000
H     2.060000000     7.391000000     1.229000000
H     1.906000000     7.540000000     2.728000000
O     1.049000000    -7.527000000    -3.151000000
H     1.962000000    -7.644000000    -3.413000000
H     1.082000000    -6.869000000    -2.456000000
O     1.005000000     7.027000000    -0.340000000
H     0.410000000     6.611000000     0.283000000
H     0.991000000     6.452000000    -1.106000000
O    -1.611000000    -6.240000000    -0.943000000
H    -1.343000000    -6.001000000    -1.830000000
H    -1.115000000    -5.650000000    -0.375000000
O     5.548000000    -0.067000000     1.773000000
H     6.051000000     0.652000000     1.390000000
H     5.147000000    -0.505000000     1.023000000
O    -0.657000000    -4.275000000    -2.731000000
H    -1.220000000    -3.523000000    -2.914000000
H     0.230000000    -3.917000000    -2.737000000
O    -2.838000000     0.933000000     4.314000000
H    -1.941000000     1.055000000     4.626000000
H    -2.859000000     0.033000000     3.991000000
O     2.881000000     3.884000000    -1.245000000
H     2.904000000     4.228000000    -2.138000000
H     1.949000000     3.844000000    -1.028000000
O    -0.602000000     3.248000000     2.856000000
H    -1.296000000     3.286000000     3.514000000
H    -0.740000000     4.026000000     2.316000000
O     0.648000000     5.100000000    -5.040000000
H     0.916000000     5.267000000    -4.136000000
H     0.111000000     4.309000000    -4.988000000
O    -6.367000000     3.637000000    -2.163000000
H    -6.434000000     4.512000000    -1.780000000
H    -5.549000000     3.285000000    -1.814000000
