161
-3015.89934
C     1.205000000     0.600000000     0.642000000
H     2.204000000     0.668000000     1.064000000
C     1.092000000     0.052000000    -0.632000000
H     2.063000000    -0.116000000    -1.091000000
C    -0.050000000    -0.285000000    -1.179000000
C    -0.108000000    -1.012000000    -2.554000000
H    -0.858000000    -0.510000000    -3.169000000
H     0.842000000    -0.920000000    -3.083000000
H    -0.425000000    -2.056000000    -2.518000000
C    -1.229000000     0.038000000    -0.481000000
H    -2.172000000    -0.257000000    -0.934000000
C    -1.153000000     0.382000000     0.842000000
H    -2.026000000     0.279000000     1.481000000
C     0.081000000     0.617000000     1.496000000
C     0.134000000     0.855000000     2.999000000
O    -0.759000000     0.333000000     3.673000000
O     1.156000000     1.326000000     3.449000000
O     1.279000000    -5.352000000    -0.783000000
H     1.888000000    -4.755000000    -1.219000000
H     1.187000000    -4.997000000     0.101000000
O    -4.742000000     3.458000000    -2.658000000
H    -5.169000000     4.263000000    -2.366000000
H    -4.830000000     2.858000000    -1.918000000
O    -2.889000000     3.146000000     1.372000000
H    -3.027000000     2.389000000     1.941000000
H    -3.549000000     3.054000000     0.685000000
O     3.650000000     0.168000000     2.985000000
H     4.378000000     0.700000000     2.664000000
H     2.907000000     0.772000000     3.015000000
O    -5.538000000     2.368000000    -0.250000000
H    -5.953000000     2.979000000     0.358000000
H    -5.655000000     1.509000000     0.156000000
O    -0.198000000     3.339000000     0.007000000
H    -1.028000000     3.471000000     0.464000000
H    -0.325000000     2.532000000    -0.492000000
O     4.660000000     2.264000000     5.460000000
H     4.259000000     2.829000000     4.799000000
H     5.602000000     2.354000000     5.312000000
O    -0.441000000    -1.888000000     5.062000000
H     0.480000000    -2.145000000     5.083000000
H    -0.435000000    -1.001000000     4.702000000
O    -5.853000000     2.343000000     4.506000000
H    -4.914000000     2.159000000     4.533000000
H    -6.115000000     2.121000000     3.612000000
O     4.986000000    -3.823000000    -0.128000000
H     5.509000000    -3.030000000    -0.248000000
H     4.661000000    -3.762000000     0.770000000
O    -0.362000000     3.697000000     7.008000000
H    -0.099000000     2.935000000     6.492000000
H    -0.688000000     3.329000000     7.830000000
O    -4.358000000    -1.021000000     2.915000000
H    -4.057000000    -1.722000000     3.492000000
H    -5.313000000    -1.055000000     2.974000000
O    -1.616000000     2.430000000    -7.604000000
H    -1.179000000     1.625000000    -7.328000000
H    -1.032000000     2.807000000    -8.262000000
O    -0.677000000    -2.512000000     1.539000000
H    -0.855000000    -2.669000000     0.612000000
H    -1.039000000    -1.643000000     1.709000000
O    -4.757000000    -4.157000000     0.529000000
H    -5.143000000    -3.984000000    -0.330000000
H    -3.824000000    -3.979000000     0.412000000
O     2.053000000     3.567000000    -2.999000000
H     2.328000000     2.783000000    -2.524000000
H     2.864000000     3.927000000    -3.357000000
O    -0.742000000    -4.705000000    -3.494000000
H    -1.331000000    -4.124000000    -3.976000000
H     0.104000000    -4.259000000    -3.516000000
O    -0.227000000     3.299000000    -5.098000000
H     0.146000000     3.563000000    -5.939000000
H     0.400000000     3.615000000    -4.448000000
O     0.346000000    -2.435000000    -5.845000000
H     1.141000000    -2.663000000    -5.361000000
H     0.551000000    -2.649000000    -6.755000000
O     1.700000000     5.529000000     5.875000000
H     1.229000000     5.581000000     5.044000000
H     1.078000000     5.120000000     6.477000000
O    -3.963000000     1.382000000    -4.488000000
H    -4.593000000     1.952000000    -4.047000000
H    -3.708000000     1.869000000    -5.271000000
O    -3.599000000    -3.759000000    -6.313000000
H    -4.326000000    -4.318000000    -6.040000000
H    -3.714000000    -2.954000000    -5.808000000
O     6.706000000    -1.402000000    -0.956000000
H     6.263000000    -1.169000000    -1.772000000
H     6.149000000    -1.040000000    -0.268000000
O    -1.267000000    -7.241000000    -4.221000000
H    -1.020000000    -6.366000000    -3.920000000
H    -1.691000000    -7.644000000    -3.463000000
O     2.029000000    -3.952000000    -4.267000000
H     2.833000000    -4.140000000    -3.783000000
H     1.929000000    -4.695000000    -4.863000000
O     4.227000000     1.385000000    -1.924000000
H     5.166000000     1.464000000    -1.753000000
H     3.857000000     2.211000000    -1.613000000
O     2.115000000    -2.232000000     3.251000000
H     2.554000000    -1.386000000     3.162000000
H     1.528000000    -2.278000000     2.496000000
O     1.770000000     1.148000000    -6.517000000
H     2.381000000     0.763000000    -5.887000000
H     0.932000000     1.169000000    -6.055000000
O    -3.158000000     1.241000000     3.647000000
H    -2.337000000     0.831000000     3.920000000
H    -3.672000000     0.524000000     3.276000000
O     0.724000000     5.734000000     3.380000000
H    -0.142000000     5.691000000     2.974000000
H     1.246000000     6.261000000     2.775000000
O    -6.543000000     0.909000000     2.091000000
H    -6.672000000    -0.008000000     2.336000000
H    -7.415000000     1.298000000     2.152000000
O     5.007000000    -0.946000000     5.496000000
H     4.178000000    -0.551000000     5.223000000
H     5.648000000    -0.617000000     4.866000000
O     3.937000000     0.220000000    -4.398000000
H     4.692000000    -0.325000000    -4.173000000
H     3.664000000     0.606000000    -3.566000000
O    -1.099000000     0.064000000    -5.697000000
H    -1.958000000     0.125000000    -5.280000000
H    -0.865000000    -0.862000000    -5.632000000
O    -1.753000000    -4.698000000     2.588000000
H    -1.413000000    -3.929000000     2.130000000
H    -1.034000000    -5.328000000     2.565000000
O    -1.119000000     1.130000000     6.295000000
H    -0.803000000     1.173000000     5.393000000
H    -2.073000000     1.122000000     6.215000000
O     2.857000000     3.248000000    -0.168000000
H     3.039000000     3.130000000     0.764000000
H     1.910000000     3.132000000    -0.244000000
O    -4.964000000    -0.928000000    -5.698000000
H    -5.755000000    -0.650000000    -5.237000000
H    -4.341000000    -0.215000000    -5.557000000
O    -3.024000000    -2.782000000     4.252000000
H    -3.001000000    -3.604000000     3.761000000
H    -2.104000000    -2.564000000     4.398000000
O     5.836000000    -0.420000000     1.260000000
H     5.840000000    -1.315000000     1.599000000
H     6.091000000     0.120000000     2.007000000
O     2.256000000     3.589000000     2.824000000
H     1.769000000     4.342000000     3.160000000
H     1.911000000     2.843000000     3.314000000
O    -2.839000000     4.340000000    -4.355000000
H    -3.298000000     3.945000000    -3.614000000
H    -2.093000000     3.762000000    -4.511000000
O    -2.411000000    -5.289000000    -1.168000000
H    -2.273000000    -6.230000000    -1.274000000
H    -1.841000000    -4.887000000    -1.824000000
O     2.590000000     1.020000000     6.663000000
H     2.008000000     1.361000000     5.985000000
H     3.453000000     1.364000000     6.433000000
O    -3.709000000     4.999000000     3.654000000
H    -3.698000000     4.043000000     3.703000000
H    -2.884000000     5.227000000     3.226000000
O    -1.456000000    -2.794000000     7.319000000
H    -0.939000000    -2.133000000     6.857000000
H    -2.362000000    -2.502000000     7.218000000
O     5.816000000    -1.608000000    -3.501000000
H     6.657000000    -1.994000000    -3.746000000
H     5.192000000    -2.330000000    -3.568000000
O     6.014000000     2.205000000     2.454000000
H     5.545000000     3.033000000     2.350000000
H     6.863000000     2.356000000     2.038000000
