161
-3020.04417
C     0.739000000     0.366000000     1.201000000
H     1.348000000     0.425000000     2.099000000
C     1.326000000    -0.036000000     0.034000000
H     2.394000000    -0.240000000     0.061000000
C     0.540000000    -0.249000000    -1.107000000
C     1.144000000    -0.707000000    -2.422000000
H     0.567000000    -0.252000000    -3.230000000
H     2.200000000    -0.506000000    -2.610000000
H     0.999000000    -1.787000000    -2.503000000
C    -0.834000000    -0.214000000    -0.930000000
H    -1.461000000    -0.460000000    -1.783000000
C    -1.459000000     0.202000000     0.234000000
H    -2.541000000     0.245000000     0.326000000
C    -0.687000000     0.487000000     1.390000000
C    -1.239000000     0.786000000     2.720000000
O    -2.472000000     0.854000000     2.836000000
O    -0.565000000     1.083000000     3.676000000
O    -2.819000000    -5.340000000    -2.547000000
H    -3.343000000    -5.888000000    -3.131000000
H    -2.238000000    -4.854000000    -3.131000000
O     1.450000000    -2.041000000     7.159000000
H     2.339000000    -2.371000000     7.030000000
H     1.282000000    -1.497000000     6.390000000
O    -1.475000000     3.927000000    -1.914000000
H    -1.825000000     3.647000000    -2.760000000
H    -2.158000000     3.697000000    -1.284000000
O     4.073000000     1.840000000     5.351000000
H     4.071000000     1.584000000     4.428000000
H     4.198000000     1.018000000     5.826000000
O    -5.996000000     0.331000000     5.125000000
H    -5.532000000     1.168000000     5.154000000
H    -6.238000000     0.158000000     6.035000000
O     1.092000000     1.921000000    -5.121000000
H     1.402000000     1.102000000    -4.733000000
H     1.401000000     2.601000000    -4.523000000
O    -5.402000000    -2.942000000     1.714000000
H    -5.081000000    -2.094000000     2.021000000
H    -4.990000000    -3.579000000     2.297000000
O    -2.510000000    -2.373000000     3.477000000
H    -2.830000000    -1.610000000     2.996000000
H    -2.328000000    -2.043000000     4.357000000
O     1.492000000     2.709000000     4.189000000
H     1.988000000     2.310000000     4.904000000
H     0.743000000     2.126000000     4.063000000
O    -4.858000000     2.993000000     5.016000000
H    -4.986000000     3.877000000     4.672000000
H    -4.867000000     3.102000000     5.967000000
O    -1.222000000    -3.505000000    -3.702000000
H    -1.644000000    -3.245000000    -4.520000000
H    -0.313000000    -3.220000000    -3.800000000
O    -0.395000000    -4.031000000    -0.528000000
H     0.258000000    -4.549000000    -0.999000000
H    -1.099000000    -3.900000000    -1.162000000
O    -2.588000000     1.361000000     7.727000000
H    -2.702000000     1.313000000     8.676000000
H    -3.448000000     1.619000000     7.395000000
O     1.732000000     1.100000000    -7.720000000
H     1.601000000     1.487000000    -6.855000000
H     1.524000000     1.807000000    -8.332000000
O     4.988000000    -2.999000000    -2.959000000
H     4.605000000    -2.970000000    -3.836000000
H     5.154000000    -2.082000000    -2.740000000
O    -0.660000000     4.309000000     6.741000000
H    -1.278000000     4.754000000     6.161000000
H    -0.632000000     3.409000000     6.416000000
O     4.677000000     1.659000000     2.602000000
H     4.885000000     0.726000000     2.549000000
H     5.482000000     2.099000000     2.330000000
O    -1.348000000    -2.174000000     7.422000000
H    -0.443000000    -1.958000000     7.648000000
H    -1.568000000    -1.570000000     6.713000000
O     0.677000000     3.073000000    -0.568000000
H     0.475000000     2.199000000    -0.235000000
H    -0.172000000     3.434000000    -0.823000000
O     1.197000000    -2.742000000    -4.969000000
H     1.869000000    -2.090000000    -4.770000000
H     1.083000000    -2.687000000    -5.918000000
O    -4.664000000    -0.598000000     2.797000000
H    -3.879000000    -0.052000000     2.760000000
H    -5.033000000    -0.429000000     3.664000000
O     0.083000000     4.131000000    -6.522000000
H    -0.861000000     4.015000000    -6.409000000
H     0.472000000     3.396000000    -6.048000000
O     3.889000000    -2.357000000     0.635000000
H     3.864000000    -3.294000000     0.440000000
H     3.088000000    -2.195000000     1.133000000
O    -2.118000000    -1.981000000    -5.906000000
H    -1.423000000    -1.810000000    -6.542000000
H    -2.714000000    -1.238000000    -5.996000000
O    -7.624000000     0.334000000     2.658000000
H    -8.447000000     0.252000000     3.139000000
H    -6.948000000     0.125000000     3.302000000
O     0.099000000    -3.303000000     2.134000000
H    -0.077000000    -3.416000000     1.200000000
H    -0.728000000    -2.987000000     2.497000000
O    -4.256000000    -2.462000000    -2.361000000
H    -3.369000000    -2.591000000    -2.024000000
H    -4.256000000    -1.566000000    -2.697000000
O     5.830000000    -0.447000000    -4.348000000
H     6.460000000    -0.818000000    -4.966000000
H     5.050000000    -0.276000000    -4.876000000
O    -3.966000000     2.781000000     1.729000000
H    -3.489000000     2.034000000     2.089000000
H    -4.791000000     2.795000000     2.215000000
O     0.763000000    -0.815000000     4.924000000
H     0.962000000    -1.398000000     4.191000000
H     0.052000000    -0.260000000     4.601000000
O     2.500000000    -4.249000000     2.729000000
H     2.390000000    -5.086000000     3.180000000
H     1.625000000    -4.037000000     2.402000000
O    -4.403000000     0.077000000    -3.598000000
H    -4.310000000    -0.079000000    -4.538000000
H    -5.273000000     0.467000000    -3.505000000
O     2.633000000     4.932000000     2.718000000
H     2.459000000     5.221000000     1.822000000
H     2.114000000     4.134000000     2.817000000
O     1.796000000    -5.684000000    -1.482000000
H     1.981000000    -6.594000000    -1.249000000
H     2.372000000    -5.170000000    -0.917000000
O     3.764000000    -0.011000000    -6.142000000
H     3.682000000    -0.665000000    -6.836000000
H     3.486000000     0.808000000    -6.552000000
O    -2.205000000     2.993000000     4.862000000
H    -1.688000000     2.273000000     4.501000000
H    -3.090000000     2.842000000     4.530000000
O    -2.603000000     2.037000000    -3.358000000
H    -3.399000000     1.512000000    -3.268000000
H    -1.951000000     1.427000000    -3.701000000
O    -0.160000000    -0.936000000    -7.459000000
H     0.576000000    -0.325000000    -7.428000000
H    -0.597000000    -0.742000000    -8.288000000
O     1.875000000     3.456000000    -3.240000000
H     1.680000000     3.550000000    -2.308000000
H     2.512000000     4.147000000    -3.422000000
O     4.429000000    -3.168000000    -5.643000000
H     3.822000000    -3.763000000    -6.083000000
H     5.014000000    -2.866000000    -6.337000000
O    -1.867000000     5.444000000     3.731000000
H    -1.969000000     4.595000000     4.162000000
H    -2.118000000     5.283000000     2.822000000
O     1.894000000    -5.357000000    -4.145000000
H     1.872000000    -5.550000000    -3.208000000
H     1.500000000    -4.488000000    -4.221000000
O     5.133000000    -0.579000000    -1.052000000
H     4.841000000    -1.175000000    -0.361000000
H     4.634000000     0.224000000    -0.902000000
O    -2.294000000    -0.304000000     5.547000000
H    -1.950000000     0.367000000     4.957000000
H    -2.543000000     0.176000000     6.337000000
O    -5.792000000     2.486000000    -0.752000000
H    -6.516000000     2.026000000    -0.326000000
H    -5.332000000     2.924000000    -0.036000000
O     5.600000000     2.062000000    -3.172000000
H     5.119000000     1.982000000    -2.348000000
H     5.682000000     1.162000000    -3.489000000
O    -3.263000000     5.159000000     1.088000000
H    -3.387000000     4.248000000     1.352000000
H    -3.559000000     5.187000000     0.178000000
O     3.877000000     2.028000000    -1.181000000
H     3.483000000     2.642000000    -0.561000000
H     3.159000000     1.785000000    -1.766000000
