161
-3039.61917
C     0.993000000     0.984000000     0.310000000
H     1.842000000     1.626000000     0.530000000
C     0.858000000     0.408000000    -0.962000000
H     1.532000000     0.686000000    -1.768000000
C    -0.168000000    -0.501000000    -1.150000000
C    -0.311000000    -1.116000000    -2.523000000
H     0.692000000    -1.132000000    -2.953000000
H    -0.730000000    -2.110000000    -2.353000000
H    -0.985000000    -0.540000000    -3.161000000
C    -1.027000000    -0.776000000    -0.059000000
H    -1.902000000    -1.411000000    -0.170000000
C    -0.840000000    -0.269000000     1.196000000
H    -1.577000000    -0.459000000     1.971000000
C     0.270000000     0.572000000     1.430000000
C     0.447000000     1.157000000     2.843000000
O    -0.324000000     0.837000000     3.734000000
O     1.236000000     2.041000000     3.082000000
O    -3.450000000     1.195000000    -4.184000000
H    -3.643000000     1.360000000    -3.261000000
H    -3.693000000     0.279000000    -4.319000000
O     0.346000000     4.289000000    -0.407000000
H     1.139000000     4.261000000    -0.943000000
H    -0.215000000     3.606000000    -0.774000000
O     3.863000000    -1.398000000     3.394000000
H     4.666000000    -1.770000000     3.760000000
H     4.143000000    -0.979000000     2.580000000
O    -3.640000000     1.894000000     1.961000000
H    -4.571000000     2.035000000     2.135000000
H    -3.368000000     1.254000000     2.619000000
O     0.754000000    -2.427000000     6.026000000
H     1.431000000    -1.750000000     6.036000000
H     1.211000000    -3.219000000     5.745000000
O    -1.469000000     2.588000000    -1.591000000
H    -0.895000000     1.823000000    -1.552000000
H    -2.330000000     2.254000000    -1.337000000
O     5.891000000     1.313000000     5.204000000
H     5.360000000     1.602000000     4.461000000
H     6.789000000     1.533000000     4.957000000
O     1.618000000    -2.569000000     2.475000000
H     2.412000000    -2.082000000     2.693000000
H     1.056000000    -1.930000000     2.037000000
O    -3.304000000     3.677000000     6.939000000
H    -3.313000000     4.369000000     6.278000000
H    -2.988000000     2.903000000     6.471000000
O     1.739000000     2.939000000     5.545000000
H     1.061000000     2.682000000     6.170000000
H     1.336000000     2.805000000     4.686000000
O    -4.789000000    -3.335000000     1.177000000
H    -4.131000000    -4.012000000     1.020000000
H    -5.171000000    -3.168000000     0.315000000
O    -3.542000000    -1.222000000     4.597000000
H    -3.020000000    -1.970000000     4.307000000
H    -3.044000000    -0.849000000     5.324000000
O    -3.880000000     1.945000000    -0.990000000
H    -4.775000000     1.984000000    -1.327000000
H    -3.975000000     1.622000000    -0.094000000
O     3.547000000    -3.806000000     0.037000000
H     3.526000000    -2.850000000     0.092000000
H     4.245000000    -3.994000000    -0.591000000
O    -2.053000000    -4.811000000    -3.152000000
H    -2.570000000    -4.038000000    -2.929000000
H    -2.571000000    -5.262000000    -3.818000000
O     2.536000000     3.684000000    -4.104000000
H     2.034000000     2.902000000    -4.332000000
H     2.571000000     3.677000000    -3.147000000
O     0.602000000    -6.165000000    -4.154000000
H    -0.127000000    -5.803000000    -3.651000000
H     1.186000000    -5.421000000    -4.299000000
O     1.532000000    -1.535000000    -5.443000000
H     0.748000000    -2.046000000    -5.240000000
H     2.081000000    -2.132000000    -5.952000000
O     4.627000000     4.453000000     5.673000000
H     4.442000000     4.906000000     4.850000000
H     3.789000000     4.065000000     5.926000000
O    -1.124000000     1.706000000    -5.274000000
H    -1.956000000     1.676000000    -4.801000000
H    -1.307000000     2.243000000    -6.045000000
O    -1.562000000    -4.007000000    -6.517000000
H    -2.328000000    -4.269000000    -6.006000000
H    -1.537000000    -3.053000000    -6.437000000
O     2.074000000    -3.925000000    -3.060000000
H     2.424000000    -4.394000000    -2.302000000
H     2.848000000    -3.589000000    -3.512000000
O     3.062000000     3.117000000    -1.310000000
H     3.246000000     3.513000000    -0.458000000
H     3.901000000     2.755000000    -1.592000000
O    -2.001000000     2.585000000     4.899000000
H    -1.366000000     3.294000000     4.797000000
H    -1.587000000     1.831000000     4.480000000
O     3.706000000     5.275000000     3.087000000
H     2.809000000     5.609000000     3.074000000
H     4.245000000     6.029000000     2.847000000
O    -5.551000000    -1.068000000    -0.868000000
H    -5.551000000    -0.632000000    -0.015000000
H    -6.164000000    -0.557000000    -1.397000000
O    -4.106000000    -1.327000000    -4.956000000
H    -4.939000000    -1.522000000    -5.384000000
H    -4.040000000    -1.973000000    -4.254000000
O     3.954000000     0.757000000     7.318000000
H     4.643000000     1.187000000     6.811000000
H     3.336000000     0.439000000     6.660000000
O     4.747000000    -0.221000000    -3.157000000
H     4.430000000    -1.093000000    -3.391000000
H     4.362000000     0.358000000    -3.814000000
O    -1.514000000     4.744000000     2.127000000
H    -0.990000000     4.771000000     1.327000000
H    -2.004000000     3.924000000     2.065000000
O     1.504000000     1.271000000    -4.880000000
H     0.589000000     1.550000000    -4.838000000
H     1.467000000     0.318000000    -4.802000000
O     5.635000000     2.367000000    -2.468000000
H     5.391000000     1.446000000    -2.562000000
H     6.587000000     2.355000000    -2.376000000
O    -0.150000000    -1.840000000    -8.199000000
H    -0.116000000    -1.310000000    -7.402000000
H     0.745000000    -2.161000000    -8.311000000
O     0.068000000    -4.767000000     1.499000000
H    -0.253000000    -4.525000000     0.630000000
H     0.613000000    -4.026000000     1.767000000
O    -1.155000000    -0.435000000     6.068000000
H    -0.510000000    -1.141000000     6.096000000
H    -0.927000000     0.067000000     5.286000000
O     5.207000000     4.194000000     1.029000000
H     4.542000000     4.097000000     1.711000000
H     5.932000000     3.642000000     1.321000000
O    -1.568000000    -1.045000000    -5.985000000
H    -2.516000000    -0.914000000    -5.982000000
H    -1.230000000    -0.363000000    -5.405000000
O    -0.284000000     4.868000000     4.809000000
H    -0.101000000     5.808000000     4.824000000
H    -0.256000000     4.634000000     3.881000000
O    -2.292000000    -3.453000000     3.372000000
H    -2.745000000    -3.918000000     2.669000000
H    -1.375000000    -3.439000000     3.098000000
O     3.670000000    -1.275000000    -0.008000000
H     2.846000000    -0.869000000    -0.277000000
H     4.218000000    -0.541000000     0.271000000
O    -5.381000000    -0.681000000     1.997000000
H    -6.161000000    -0.669000000     2.552000000
H    -5.089000000    -1.592000000     2.013000000
O     3.797000000     2.283000000     3.050000000
H     3.705000000     3.060000000     3.602000000
H     2.901000000     2.068000000     2.788000000
O    -0.198000000    -4.212000000    -1.033000000
H     0.286000000    -3.763000000    -1.727000000
H    -0.883000000    -4.696000000    -1.494000000
O     2.412000000    -0.315000000     5.321000000
H     2.110000000     0.482000000     4.887000000
H     2.998000000    -0.726000000     4.685000000
O    -2.629000000    -5.364000000     1.217000000
H    -3.216000000    -6.024000000     1.587000000
H    -1.752000000    -5.728000000     1.339000000
O     4.479000000    -3.027000000    -3.454000000
H     5.113000000    -2.896000000    -4.159000000
H     4.926000000    -3.604000000    -2.834000000
O    -3.817000000    -2.653000000    -2.507000000
H    -4.169000000    -1.952000000    -1.959000000
H    -4.587000000    -3.142000000    -2.796000000
O     5.119000000     0.554000000     1.381000000
H     4.861000000     1.264000000     1.968000000
H     6.054000000     0.692000000     1.235000000
