161
-3049.36942
C    -0.300000000    -0.105000000     1.466000000
H    -0.633000000    -0.089000000     2.501000000
C    -1.049000000    -0.599000000     0.433000000
H    -2.046000000    -0.987000000     0.625000000
C    -0.656000000    -0.565000000    -0.890000000
C    -1.593000000    -0.967000000    -1.938000000
H    -1.378000000    -1.964000000    -2.329000000
H    -2.619000000    -0.856000000    -1.582000000
H    -1.553000000    -0.328000000    -2.822000000
C     0.518000000     0.072000000    -1.220000000
H     0.804000000     0.293000000    -2.246000000
C     1.324000000     0.633000000    -0.206000000
H     2.155000000     1.276000000    -0.484000000
C     0.885000000     0.599000000     1.110000000
C     1.796000000     1.108000000     2.207000000
O     2.930000000     1.423000000     1.993000000
O     1.415000000     1.051000000     3.375000000
O     3.596000000     3.931000000     6.692000000
H     3.034000000     3.194000000     6.928000000
H     4.383000000     3.526000000     6.329000000
O     4.814000000     2.724000000     0.550000000
H     4.043000000     2.372000000     0.995000000
H     4.458000000     3.280000000    -0.143000000
O    -5.223000000     1.114000000    -4.818000000
H    -5.008000000     1.110000000    -3.885000000
H    -4.388000000     0.950000000    -5.257000000
O    -4.454000000     2.811000000     2.164000000
H    -3.808000000     2.956000000     2.856000000
H    -4.527000000     1.858000000     2.101000000
O     0.431000000     3.820000000    -1.766000000
H     0.622000000     3.755000000    -2.702000000
H    -0.280000000     3.196000000    -1.623000000
O     1.332000000    -2.874000000     0.933000000
H     0.917000000    -2.073000000     0.612000000
H     2.108000000    -2.978000000     0.383000000
O     3.438000000    -2.459000000    -0.876000000
H     3.908000000    -2.018000000    -0.168000000
H     2.979000000    -1.755000000    -1.334000000
O     1.610000000     4.441000000    -5.912000000
H     1.142000000     3.731000000    -5.474000000
H     1.438000000     5.211000000    -5.371000000
O     1.332000000    -4.754000000    -2.716000000
H     1.183000000    -4.102000000    -3.401000000
H     0.569000000    -4.679000000    -2.143000000
O    -4.942000000     0.187000000     1.932000000
H    -4.681000000    -0.595000000     2.417000000
H    -5.517000000    -0.141000000     1.241000000
O    -1.452000000    -1.992000000    -5.411000000
H    -1.925000000    -1.202000000    -5.672000000
H    -2.072000000    -2.705000000    -5.567000000
O    -4.834000000    -2.130000000    -5.976000000
H    -5.759000000    -2.012000000    -5.763000000
H    -4.570000000    -2.905000000    -5.480000000
O     6.542000000     4.623000000     1.268000000
H     5.791000000     4.043000000     1.140000000
H     6.173000000     5.505000000     1.235000000
O     4.289000000     3.307000000     3.378000000
H     3.691000000     2.585000000     3.184000000
H     4.972000000     2.914000000     3.921000000
O    -6.446000000    -0.783000000    -0.014000000
H    -6.104000000    -1.434000000    -0.626000000
H    -7.279000000    -0.508000000    -0.397000000
O     6.164000000    -0.639000000    -0.904000000
H     6.591000000    -1.421000000    -1.254000000
H     5.557000000    -0.369000000    -1.593000000
O     4.269000000    -0.603000000     1.165000000
H     3.864000000     0.236000000     1.386000000
H     4.826000000    -0.410000000     0.411000000
O    -5.355000000    -2.273000000    -2.139000000
H    -4.425000000    -2.501000000    -2.141000000
H    -5.807000000    -3.113000000    -2.066000000
O     5.607000000     2.393000000     5.779000000
H     5.908000000     2.194000000     6.665000000
H     4.804000000     1.881000000     5.678000000
O    -1.847000000    -3.977000000     3.595000000
H    -1.970000000    -4.722000000     3.007000000
H    -0.934000000    -4.041000000     3.876000000
O     1.920000000     1.664000000     7.270000000
H     1.115000000     2.179000000     7.323000000
H     1.810000000     1.128000000     6.485000000
O     4.160000000     0.039000000    -2.821000000
H     4.333000000    -0.580000000    -3.530000000
H     3.965000000     0.864000000    -3.265000000
O     0.399000000    -0.827000000     5.509000000
H     0.661000000    -1.689000000     5.183000000
H     0.178000000    -0.331000000     4.721000000
O    -2.904000000    -4.276000000    -3.695000000
H    -2.132000000    -4.834000000    -3.603000000
H    -3.639000000    -4.888000000    -3.733000000
O    -2.415000000     2.481000000     3.952000000
H    -1.467000000     2.521000000     3.825000000
H    -2.531000000     1.924000000     4.721000000
O    -3.082000000     0.017000000    -6.227000000
H    -3.200000000     0.509000000    -7.040000000
H    -3.803000000    -0.613000000    -6.222000000
O     2.009000000     5.644000000     5.362000000
H     1.871000000     5.386000000     4.450000000
H     2.455000000     4.895000000     5.758000000
O     3.057000000     4.225000000    -1.167000000
H     2.988000000     5.124000000    -0.844000000
H     2.157000000     3.976000000    -1.375000000
O    -2.036000000     2.761000000    -2.303000000
H    -2.344000000     1.952000000    -1.894000000
H    -2.800000000     3.338000000    -2.298000000
O     0.562000000     0.256000000    -6.425000000
H    -0.344000000     0.153000000    -6.715000000
H     0.490000000     0.600000000    -5.534000000
O    -6.771000000    -1.032000000    -4.444000000
H    -6.474000000    -1.303000000    -3.575000000
H    -6.282000000    -0.229000000    -4.625000000
O    -5.638000000    -3.417000000     1.954000000
H    -5.658000000    -3.229000000     1.016000000
H    -5.979000000    -4.309000000     2.027000000
O    -3.586000000    -2.052000000     3.287000000
H    -2.834000000    -2.629000000     3.415000000
H    -4.230000000    -2.595000000     2.833000000
O     1.052000000    -2.331000000    -4.526000000
H     1.404000000    -1.470000000    -4.299000000
H     0.141000000    -2.162000000    -4.766000000
O    -1.589000000    -6.255000000    -2.219000000
H    -1.885000000    -5.840000000    -1.409000000
H    -0.948000000    -6.906000000    -1.934000000
O    -3.016000000    -0.767000000     5.498000000
H    -3.260000000    -1.095000000     4.632000000
H    -3.647000000    -1.170000000     6.094000000
O     0.321000000     3.371000000     3.961000000
H     0.835000000     4.005000000     3.461000000
H     0.861000000     2.580000000     3.972000000
O    -2.667000000    -3.810000000    -0.736000000
H    -1.826000000    -4.115000000    -0.397000000
H    -2.447000000    -3.359000000    -1.552000000
O     2.284000000     5.037000000     2.739000000
H     2.747000000     5.658000000     2.177000000
H     2.924000000     4.348000000     2.914000000
O    -1.366000000     4.164000000     6.249000000
H    -0.885000000     3.750000000     5.532000000
H    -2.288000000     4.024000000     6.031000000
O     3.411000000     0.598000000     5.325000000
H     2.695000000     0.896000000     4.763000000
H     3.732000000    -0.198000000     4.902000000
O    -0.070000000    -4.899000000    -0.018000000
H     0.077000000    -5.798000000     0.276000000
H     0.565000000    -4.379000000     0.475000000
O    -0.522000000     2.799000000    -4.522000000
H    -1.034000000     2.884000000    -5.326000000
H    -1.175000000     2.798000000    -3.822000000
O     0.850000000    -3.472000000     3.619000000
H     1.057000000    -4.396000000     3.758000000
H     1.199000000    -3.277000000     2.749000000
O     4.195000000    -1.702000000     3.889000000
H     5.100000000    -2.002000000     3.811000000
H     3.918000000    -1.539000000     2.987000000
O     7.263000000     1.337000000     0.933000000
H     6.984000000     0.467000000     0.647000000
H     6.482000000     1.882000000     0.838000000
O     3.842000000     2.672000000    -3.811000000
H     4.140000000     3.444000000    -4.291000000
H     3.357000000     3.026000000    -3.066000000
O    -4.867000000     0.710000000    -2.212000000
H    -5.181000000    -0.175000000    -2.027000000
H    -5.433000000     1.279000000    -1.691000000
