161
-3055.00609
C    -0.310000000    -0.085000000     1.471000000
H    -0.791000000    -0.122000000     2.445000000
C    -0.985000000    -0.664000000     0.468000000
H    -1.953000000    -1.126000000     0.650000000
C    -0.666000000    -0.575000000    -0.894000000
C    -1.460000000    -1.158000000    -2.125000000
H    -2.531000000    -1.215000000    -1.917000000
H    -1.456000000    -0.429000000    -2.938000000
H    -1.011000000    -2.074000000    -2.515000000
C     0.529000000     0.110000000    -1.118000000
H     0.879000000     0.146000000    -2.147000000
C     1.322000000     0.654000000    -0.116000000
H     2.228000000     1.209000000    -0.346000000
C     0.880000000     0.598000000     1.242000000
C     1.599000000     1.359000000     2.320000000
O     2.684000000     1.835000000     2.133000000
O     1.040000000     1.533000000     3.394000000
O     3.952000000     4.425000000     1.469000000
H     3.563000000     3.597000000     1.752000000
H     3.282000000     4.830000000     0.919000000
O    -4.310000000    -1.206000000    -3.956000000
H    -3.579000000    -1.817000000    -4.050000000
H    -5.039000000    -1.634000000    -4.404000000
O    -0.295000000     3.187000000    -2.140000000
H     0.373000000     2.506000000    -2.063000000
H    -1.122000000     2.706000000    -2.185000000
O    -0.143000000     1.571000000     8.527000000
H    -0.163000000     0.639000000     8.744000000
H     0.625000000     1.670000000     7.964000000
O     1.758000000    -2.799000000     0.725000000
H     0.811000000    -2.816000000     0.592000000
H     2.071000000    -2.115000000     0.133000000
O     3.495000000    -1.260000000    -1.471000000
H     3.596000000    -0.316000000    -1.349000000
H     4.304000000    -1.532000000    -1.905000000
O     1.620000000    -3.070000000    -2.965000000
H     2.254000000    -2.464000000    -3.348000000
H     1.067000000    -2.518000000    -2.411000000
O    -4.436000000    -0.029000000     1.425000000
H    -4.096000000    -0.772000000     1.924000000
H    -4.396000000    -0.315000000     0.513000000
O    -4.003000000    -5.995000000    -3.264000000
H    -3.797000000    -5.095000000    -3.014000000
H    -3.279000000    -6.513000000    -2.913000000
O    -1.092000000    -6.657000000    -5.294000000
H    -0.985000000    -5.843000000    -4.803000000
H    -1.575000000    -6.401000000    -6.080000000
O     0.709000000     4.262000000     4.168000000
H     1.072000000     3.377000000     4.131000000
H    -0.218000000     4.132000000     4.368000000
O     5.949000000     4.064000000     3.321000000
H     5.130000000     3.639000000     3.577000000
H     5.682000000     4.747000000     2.707000000
O    -4.117000000    -5.532000000     0.635000000
H    -4.893000000    -6.072000000     0.487000000
H    -4.424000000    -4.633000000     0.513000000
O    -5.292000000    -2.979000000    -0.077000000
H    -6.172000000    -3.100000000     0.280000000
H    -5.373000000    -2.229000000    -0.666000000
O     3.763000000     3.019000000     4.359000000
H     3.254000000     2.498000000     3.738000000
H     3.702000000     2.536000000     5.183000000
O     1.708000000     5.146000000    -4.084000000
H     1.995000000     5.895000000    -3.563000000
H     2.029000000     4.383000000    -3.603000000
O    -1.005000000    -2.822000000     4.154000000
H    -0.955000000    -3.770000000     4.275000000
H    -0.166000000    -2.586000000     3.758000000
O    -1.514000000     1.533000000     4.645000000
H    -1.375000000     0.833000000     5.283000000
H    -0.738000000     1.505000000     4.086000000
O    -1.083000000     5.420000000     1.929000000
H    -0.669000000     4.821000000     1.308000000
H    -1.398000000     4.854000000     2.634000000
O     5.903000000     0.235000000    -3.411000000
H     5.333000000     0.701000000    -2.801000000
H     5.901000000     0.775000000    -4.202000000
O     1.614000000    -0.270000000     5.286000000
H     1.550000000    -0.956000000     4.621000000
H     1.474000000     0.545000000     4.803000000
O    -3.335000000    -3.772000000    -2.083000000
H    -2.512000000    -3.770000000    -1.594000000
H    -3.945000000    -3.287000000    -1.528000000
O     2.344000000    -0.056000000     7.836000000
H     2.748000000     0.808000000     7.921000000
H     2.052000000    -0.095000000     6.925000000
O    -3.842000000     1.985000000     3.357000000
H    -3.121000000     1.661000000     3.897000000
H    -4.137000000     1.217000000     2.867000000
O    -1.973000000     0.346000000    -5.967000000
H    -1.532000000     0.217000000    -6.807000000
H    -2.333000000    -0.515000000    -5.751000000
O     1.703000000     5.006000000    -0.087000000
H     1.417000000     5.663000000    -0.721000000
H     2.058000000     4.296000000    -0.621000000
O    -3.824000000     3.211000000    -1.396000000
H    -3.538000000     2.801000000    -2.212000000
H    -3.631000000     2.560000000    -0.721000000
O    -0.020000000     2.273000000    -5.577000000
H    -0.396000000     3.075000000    -5.941000000
H    -0.708000000     1.616000000    -5.686000000
O     4.083000000    -3.109000000     3.993000000
H     4.992000000    -3.383000000     3.868000000
H     4.070000000    -2.191000000     3.724000000
O    -3.118000000    -2.113000000     2.670000000
H    -2.382000000    -2.546000000     3.103000000
H    -3.894000000    -2.540000000     3.033000000
O    -1.917000000    -1.082000000     6.129000000
H    -1.500000000    -1.716000000     5.546000000
H    -2.835000000    -1.350000000     6.157000000
O     2.048000000     1.648000000    -4.021000000
H     2.301000000     2.491000000    -3.644000000
H     1.245000000     1.834000000    -4.506000000
O     3.028000000    -5.325000000    -3.571000000
H     2.536000000    -4.634000000    -3.127000000
H     3.676000000    -4.857000000    -4.097000000
O    -2.150000000     4.159000000     4.627000000
H    -2.889000000     4.305000000     4.037000000
H    -1.971000000     3.221000000     4.560000000
O    -1.612000000    -3.933000000     0.043000000
H    -1.991000000    -4.737000000     0.399000000
H    -2.090000000    -3.229000000     0.481000000
O     2.838000000     6.096000000     3.471000000
H     2.148000000     5.556000000     3.856000000
H     3.242000000     5.532000000     2.811000000
O     6.900000000    -0.825000000     1.892000000
H     5.943000000    -0.810000000     1.868000000
H     7.125000000    -0.460000000     2.748000000
O     4.493000000    -0.308000000     3.335000000
H     4.870000000     0.128000000     4.099000000
H     3.992000000     0.377000000     2.892000000
O    -0.657000000    -5.902000000    -1.972000000
H    -0.812000000    -6.807000000    -1.700000000
H    -0.332000000    -5.468000000    -1.184000000
O     2.846000000    -1.224000000    -4.557000000
H     3.744000000    -1.447000000    -4.803000000
H     2.831000000    -0.267000000    -4.551000000
O    -3.037000000     1.479000000    -3.356000000
H    -2.617000000     1.106000000    -4.131000000
H    -3.852000000     0.985000000    -3.264000000
O     1.466000000    -2.435000000     3.447000000
H     2.227000000    -2.849000000     3.854000000
H     1.734000000    -2.279000000     2.541000000
O     5.064000000     1.124000000    -0.837000000
H     5.754000000     0.468000000    -0.931000000
H     5.510000000     1.890000000    -0.476000000
O     6.274000000     3.251000000    -0.132000000
H     7.021000000     3.834000000     0.002000000
H     5.529000000     3.728000000     0.234000000
O     3.171000000     3.399000000    -2.054000000
H     3.791000000     2.882000000    -1.539000000
H     3.695000000     4.114000000    -2.413000000
O    -2.412000000    -2.662000000    -5.413000000
H    -1.846000000    -3.261000000    -4.925000000
H    -2.315000000    -2.932000000    -6.326000000
O    -5.413000000    -0.804000000    -1.565000000
H    -4.992000000    -0.849000000    -2.423000000
H    -6.326000000    -0.592000000    -1.757000000
O    -0.421000000    -4.241000000    -4.141000000
H    -0.505000000    -4.696000000    -3.303000000
H     0.416000000    -3.782000000    -4.081000000
