161
-3028.25457
C     0.981000000    -0.835000000     0.772000000
H     1.560000000    -1.394000000     1.502000000
C    -0.361000000    -0.522000000     1.163000000
H    -0.903000000    -1.019000000     1.964000000
C    -1.188000000     0.252000000     0.329000000
C    -2.635000000     0.518000000     0.628000000
H    -3.149000000     0.684000000    -0.320000000
H    -3.119000000    -0.352000000     1.076000000
H    -2.797000000     1.403000000     1.247000000
C    -0.630000000     0.787000000    -0.839000000
H    -1.091000000     1.476000000    -1.543000000
C     0.713000000     0.500000000    -1.158000000
H     1.048000000     0.906000000    -2.109000000
C     1.550000000    -0.271000000    -0.367000000
C     2.942000000    -0.676000000    -0.704000000
O     3.479000000    -0.086000000    -1.649000000
O     3.595000000    -1.375000000     0.003000000
O     3.819000000     3.366000000     0.885000000
H     4.064000000     2.478000000     1.145000000
H     3.215000000     3.657000000     1.568000000
O     3.351000000     3.825000000    -4.403000000
H     4.110000000     3.254000000    -4.527000000
H     2.685000000     3.257000000    -4.017000000
O    -6.720000000     1.189000000     3.694000000
H    -5.997000000     1.617000000     4.154000000
H    -7.119000000     0.620000000     4.352000000
O    -2.464000000    -1.992000000     3.931000000
H    -3.020000000    -2.206000000     4.680000000
H    -2.793000000    -2.546000000     3.223000000
O     0.100000000    -1.932000000    -3.865000000
H    -0.234000000    -1.054000000    -4.052000000
H    -0.613000000    -2.518000000    -4.119000000
O     3.578000000    -5.618000000    -1.593000000
H     2.793000000    -5.541000000    -1.049000000
H     4.115000000    -4.865000000    -1.347000000
O    -0.767000000     5.770000000    -2.019000000
H    -1.447000000     6.193000000    -1.494000000
H    -0.650000000     4.912000000    -1.612000000
O     4.898000000    -3.322000000    -1.060000000
H     4.493000000    -2.552000000    -0.662000000
H     5.491000000    -2.966000000    -1.721000000
O    -4.776000000     1.189000000    -2.811000000
H    -4.360000000     1.060000000    -3.663000000
H    -5.424000000     0.487000000    -2.752000000
O    -2.811000000    -4.975000000     1.824000000
H    -3.357000000    -5.704000000     1.528000000
H    -3.303000000    -4.192000000     1.578000000
O     0.684000000     3.502000000     0.497000000
H     0.601000000     2.640000000     0.090000000
H     0.542000000     3.340000000     1.430000000
O     7.526000000     2.121000000     1.001000000
H     8.434000000     2.424000000     0.968000000
H     7.248000000     2.097000000     0.086000000
O     5.115000000     1.643000000    -4.480000000
H     5.210000000     0.978000000    -5.161000000
H     5.360000000     1.195000000    -3.670000000
O    -2.108000000     4.659000000     0.800000000
H    -1.549000000     3.973000000     1.164000000
H    -2.436000000     5.131000000     1.565000000
O    -2.865000000     4.454000000    -4.272000000
H    -3.779000000     4.220000000    -4.437000000
H    -2.767000000     4.380000000    -3.323000000
O     3.100000000    -5.451000000     4.389000000
H     3.732000000    -6.154000000     4.236000000
H     3.165000000    -4.897000000     3.612000000
O    -0.359000000     3.172000000     2.875000000
H    -0.228000000     3.802000000     3.583000000
H    -0.510000000     2.339000000     3.321000000
O    -0.726000000     1.324000000     4.967000000
H    -0.216000000     1.717000000     5.675000000
H    -0.678000000     0.382000000     5.131000000
O     1.808000000    -0.468000000     3.762000000
H     0.947000000    -0.422000000     3.345000000
H     1.723000000    -1.169000000     4.409000000
O    -0.653000000    -2.756000000    -1.230000000
H    -0.323000000    -2.282000000    -1.993000000
H    -0.708000000    -2.094000000    -0.541000000
O    -0.032000000    -1.768000000     5.539000000
H    -0.722000000    -2.274000000     5.108000000
H     0.174000000    -2.269000000     6.328000000
O     4.696000000     0.767000000     1.522000000
H     4.031000000     0.961000000     2.182000000
H     4.372000000    -0.018000000     1.079000000
O    -7.436000000    -2.960000000     2.088000000
H    -6.810000000    -2.236000000     2.097000000
H    -6.942000000    -3.708000000     2.424000000
O    -3.182000000     3.713000000    -1.606000000
H    -4.024000000     3.733000000    -1.152000000
H    -2.547000000     3.991000000    -0.945000000
O    -3.466000000    -2.846000000    -1.775000000
H    -3.484000000    -3.801000000    -1.839000000
H    -2.537000000    -2.630000000    -1.687000000
O     5.856000000    -0.018000000    -2.624000000
H     4.964000000     0.004000000    -2.278000000
H     6.047000000    -0.950000000    -2.735000000
O    -6.705000000     2.900000000    -1.691000000
H    -5.987000000     2.650000000    -2.273000000
H    -6.308000000     3.510000000    -1.069000000
O     3.315000000     5.925000000    -2.386000000
H     3.159000000     4.987000000    -2.495000000
H     3.871000000     6.163000000    -3.129000000
O    -3.252000000     5.440000000     3.331000000
H    -3.956000000     4.833000000     3.100000000
H    -2.983000000     5.172000000     4.209000000
O     3.306000000     2.491000000    -1.636000000
H     3.455000000     1.546000000    -1.671000000
H     3.295000000     2.698000000    -0.702000000
O    -6.876000000     0.235000000    -0.416000000
H    -6.155000000    -0.159000000    -0.907000000
H    -6.965000000     1.114000000    -0.784000000
O     6.359000000    -4.025000000     1.695000000
H     6.213000000    -3.322000000     1.062000000
H     7.303000000    -4.016000000     1.849000000
O    -5.235000000    -1.579000000     4.986000000
H    -5.314000000    -2.450000000     4.597000000
H    -6.094000000    -1.412000000     5.373000000
O     3.322000000    -3.922000000     1.971000000
H     3.068000000    -4.544000000     1.289000000
H     3.874000000    -3.283000000     1.520000000
O    -4.111000000    -2.892000000     0.802000000
H    -3.939000000    -2.457000000    -0.034000000
H    -4.609000000    -2.250000000     1.307000000
O    -5.756000000    -1.421000000    -2.515000000
H    -4.828000000    -1.657000000    -2.496000000
H    -6.217000000    -2.256000000    -2.439000000
O     6.195000000     2.494000000    -1.478000000
H     5.284000000     2.786000000    -1.446000000
H     6.143000000     1.574000000    -1.740000000
O     1.508000000    -6.184000000     0.478000000
H     0.792000000    -5.597000000     0.234000000
H     1.125000000    -7.060000000     0.435000000
O    -5.637000000    -0.601000000     1.818000000
H    -5.463000000     0.097000000     2.449000000
H    -6.392000000    -0.289000000     1.318000000
O    -3.470000000     0.930000000     4.627000000
H    -2.536000000     1.084000000     4.484000000
H    -3.557000000    -0.023000000     4.634000000
O     3.910000000    -2.065000000    -6.277000000
H     3.811000000    -3.015000000    -6.203000000
H     3.611000000    -1.727000000    -5.433000000
O     2.879000000    -1.625000000    -3.735000000
H     3.135000000    -0.942000000    -3.116000000
H     1.922000000    -1.605000000    -3.731000000
O     6.618000000    -2.518000000    -2.868000000
H     6.492000000    -3.019000000    -3.673000000
H     7.560000000    -2.563000000    -2.702000000
O     3.086000000     2.002000000     3.459000000
H     2.604000000     1.208000000     3.691000000
H     2.828000000     2.641000000     4.123000000
O    -0.971000000    -5.237000000    -0.237000000
H    -0.760000000    -4.397000000    -0.643000000
H    -1.451000000    -5.005000000     0.558000000
O     0.585000000     0.555000000    -6.107000000
H     1.534000000     0.678000000    -6.075000000
H     0.463000000    -0.235000000    -6.634000000
O     7.166000000    -0.083000000     2.661000000
H     6.383000000    -0.281000000     2.148000000
H     7.669000000     0.515000000     2.109000000
O    -5.487000000     4.627000000    -0.285000000
H    -5.081000000     5.482000000    -0.430000000
H    -5.634000000     4.589000000     0.660000000
