161
-3077.98165
C     1.157000000    -0.977000000    -0.022000000
H     1.910000000    -1.761000000    -0.008000000
C    -0.048000000    -1.200000000     0.619000000
H    -0.233000000    -2.036000000     1.288000000
C    -1.035000000    -0.213000000     0.657000000
C    -2.294000000    -0.219000000     1.507000000
H    -2.871000000    -1.075000000     1.149000000
H    -2.030000000    -0.521000000     2.523000000
H    -2.806000000     0.738000000     1.625000000
C    -0.882000000     0.963000000    -0.177000000
H    -1.677000000     1.704000000    -0.210000000
C     0.271000000     1.105000000    -0.962000000
H     0.359000000     1.968000000    -1.617000000
C     1.336000000     0.202000000    -0.857000000
C     2.644000000     0.401000000    -1.569000000
O     3.172000000     1.498000000    -1.814000000
O     3.026000000    -0.583000000    -2.126000000
O     0.947000000     2.962000000     2.613000000
H     1.470000000     2.617000000     1.889000000
H     0.242000000     3.450000000     2.188000000
O     6.460000000    -3.082000000    -0.408000000
H     7.128000000    -2.677000000     0.146000000
H     6.450000000    -2.547000000    -1.201000000
O    -2.345000000     2.160000000    -6.418000000
H    -3.164000000     2.341000000    -5.959000000
H    -1.666000000     2.283000000    -5.755000000
O     2.156000000     5.367000000     0.746000000
H     1.296000000     5.312000000     1.164000000
H     2.295000000     4.497000000     0.371000000
O    -1.786000000    -0.908000000    -2.573000000
H    -1.047000000    -0.645000000    -2.025000000
H    -1.594000000    -0.529000000    -3.431000000
O     3.373000000    -3.192000000    -2.301000000
H     3.018000000    -3.134000000    -3.188000000
H     3.629000000    -2.295000000    -2.086000000
O    -3.849000000    -4.804000000     3.682000000
H    -3.501000000    -5.661000000     3.928000000
H    -4.779000000    -4.849000000     3.907000000
O     0.832000000     0.823000000     4.952000000
H     0.549000000     1.721000000     5.126000000
H     1.261000000     0.868000000     4.098000000
O     4.958000000    -0.619000000     0.976000000
H     5.393000000    -0.719000000     0.130000000
H     5.142000000     0.284000000     1.235000000
O    -7.002000000     0.305000000     3.511000000
H    -6.511000000     0.192000000     2.697000000
H    -6.404000000     0.007000000     4.196000000
O    -4.771000000    -0.130000000     5.215000000
H    -4.154000000    -0.842000000     5.045000000
H    -5.141000000    -0.334000000     6.074000000
O    -3.512000000     2.086000000     5.938000000
H    -2.692000000     2.159000000     5.450000000
H    -3.991000000     1.384000000     5.498000000
O    -6.048000000     2.620000000     0.482000000
H    -5.614000000     1.822000000     0.783000000
H    -6.530000000     2.933000000     1.247000000
O     7.220000000    -1.708000000    -4.191000000
H     6.686000000    -2.238000000    -4.784000000
H     6.653000000    -1.550000000    -3.436000000
O     4.611000000     5.901000000    -2.272000000
H     5.349000000     5.772000000    -1.675000000
H     4.092000000     5.102000000    -2.187000000
O     5.613000000     2.728000000    -5.150000000
H     5.291000000     3.623000000    -5.256000000
H     6.280000000     2.630000000    -5.829000000
O    -1.750000000     2.758000000     3.965000000
H    -1.346000000     3.590000000     4.211000000
H    -1.012000000     2.168000000     3.816000000
O    -3.170000000     4.280000000     2.037000000
H    -3.335000000     4.066000000     1.119000000
H    -2.968000000     3.440000000     2.447000000
O     0.133000000    -3.508000000    -3.967000000
H    -0.291000000    -3.699000000    -3.131000000
H     0.911000000    -4.065000000    -3.974000000
O    -1.141000000     5.085000000    -2.131000000
H    -1.455000000     5.905000000    -1.749000000
H    -0.384000000     5.341000000    -2.658000000
O     1.802000000    -2.939000000     4.117000000
H     2.578000000    -3.091000000     3.579000000
H     1.770000000    -3.691000000     4.708000000
O     4.671000000    -1.470000000    -5.318000000
H     5.013000000    -0.953000000    -6.047000000
H     4.157000000    -0.848000000    -4.803000000
O    -0.610000000    -1.412000000     5.453000000
H    -0.050000000    -2.089000000     5.073000000
H    -0.059000000    -0.629000000     5.473000000
O    -3.457000000    -2.315000000     4.929000000
H    -3.116000000    -3.004000000     4.359000000
H    -2.681000000    -1.947000000     5.352000000
O    -1.666000000    -3.624000000    -1.950000000
H    -1.637000000    -2.676000000    -2.084000000
H    -2.561000000    -3.871000000    -2.181000000
O     2.241000000    -0.224000000     2.943000000
H     1.683000000    -0.999000000     3.012000000
H     2.868000000    -0.441000000     2.253000000
O     5.884000000    -0.653000000    -1.914000000
H     6.214000000     0.163000000    -2.289000000
H     4.936000000    -0.609000000    -2.039000000
O    -6.126000000    -0.258000000     0.995000000
H    -5.632000000    -0.350000000     0.180000000
H    -6.135000000    -1.139000000     1.370000000
O    -0.596000000     5.174000000     1.405000000
H    -0.774000000     5.847000000     0.749000000
H    -1.461000000     4.907000000     1.716000000
O     1.037000000    -0.781000000    -4.139000000
H     1.844000000    -0.949000000    -3.654000000
H     0.475000000    -1.529000000    -3.937000000
O     3.498000000     0.936000000    -4.746000000
H     3.261000000     1.097000000    -3.833000000
H     4.192000000     1.570000000    -4.929000000
O     0.926000000     4.788000000    -4.380000000
H     0.504000000     4.042000000    -4.808000000
H     1.041000000     5.431000000    -5.079000000
O     3.461000000    -4.365000000     2.545000000
H     3.783000000    -4.525000000     1.658000000
H     3.377000000    -5.237000000     2.930000000
O     4.078000000    -4.135000000    -5.636000000
H     4.986000000    -4.437000000    -5.635000000
H     4.141000000    -3.184000000    -5.545000000
O    -5.370000000    -3.299000000    -0.928000000
H    -5.346000000    -2.346000000    -1.015000000
H    -4.948000000    -3.473000000    -0.087000000
O     2.813000000     2.581000000     0.559000000
H     2.935000000     2.073000000    -0.243000000
H     3.638000000     2.480000000     1.034000000
O     0.905000000    -7.271000000     1.920000000
H     0.635000000    -6.758000000     1.159000000
H     0.312000000    -8.023000000     1.924000000
O    -5.445000000    -2.536000000     2.054000000
H    -5.659000000    -3.442000000     1.831000000
H    -4.845000000    -2.607000000     2.797000000
O     2.622000000     4.006000000    -2.187000000
H     2.788000000     3.132000000    -1.833000000
H     1.883000000     3.885000000    -2.785000000
O     4.251000000    -4.720000000     0.026000000
H     5.145000000    -4.437000000    -0.165000000
H     3.696000000    -4.061000000    -0.392000000
O     7.295000000     2.586000000    -0.439000000
H     6.986000000     2.093000000    -1.200000000
H     8.249000000     2.539000000    -0.495000000
O    -3.099000000     3.795000000    -0.734000000
H    -3.619000000     4.519000000    -1.084000000
H    -2.322000000     3.766000000    -1.293000000
O     5.674000000     1.804000000    -2.651000000
H     4.804000000     1.755000000    -2.255000000
H     5.515000000     2.117000000    -3.541000000
O    -1.083000000    -5.803000000     0.013000000
H    -1.945000000    -5.787000000     0.429000000
H    -1.107000000    -5.081000000    -0.615000000
O     0.233000000     1.899000000    -4.906000000
H     0.806000000     1.935000000    -5.672000000
H     0.414000000     1.045000000    -4.512000000
O     5.651000000     1.631000000     1.958000000
H     6.216000000     2.086000000     1.335000000
H     6.217000000     0.971000000     2.358000000
O    -4.511000000    -0.618000000    -1.258000000
H    -3.572000000    -0.745000000    -1.397000000
H    -4.752000000     0.075000000    -1.873000000
O    -5.237000000     2.083000000    -2.490000000
H    -5.181000000     2.365000000    -1.577000000
H    -4.656000000     2.681000000    -2.961000000
