161
-3028.99792
C     0.600000000     0.296000000     1.343000000
H     0.925000000     0.550000000     2.348000000
C    -0.752000000     0.425000000     1.020000000
H    -1.531000000     0.537000000     1.770000000
C    -1.181000000     0.061000000    -0.271000000
C    -2.645000000    -0.258000000    -0.595000000
H    -3.246000000     0.036000000     0.269000000
H    -3.090000000     0.365000000    -1.374000000
H    -2.882000000    -1.296000000    -0.836000000
C    -0.240000000    -0.164000000    -1.277000000
H    -0.610000000    -0.342000000    -2.283000000
C     1.083000000    -0.105000000    -0.958000000
H     1.850000000    -0.409000000    -1.666000000
C     1.543000000     0.140000000     0.348000000
C     3.020000000     0.027000000     0.658000000
O     3.739000000    -0.009000000    -0.292000000
O     3.412000000     0.153000000     1.796000000
O     2.035000000     3.068000000     2.084000000
H     1.446000000     2.919000000     1.345000000
H     2.473000000     2.226000000     2.214000000
O     6.327000000     0.818000000    -0.518000000
H     6.471000000     0.902000000     0.425000000
H     5.376000000     0.867000000    -0.620000000
O     5.689000000     2.359000000    -4.224000000
H     6.527000000     1.911000000    -4.110000000
H     5.042000000     1.752000000    -3.863000000
O     1.405000000    -3.346000000    -2.268000000
H     0.733000000    -3.085000000    -2.899000000
H     1.598000000    -4.257000000    -2.488000000
O    -0.133000000    -2.528000000    -4.242000000
H    -0.394000000    -3.277000000    -4.779000000
H    -0.958000000    -2.102000000    -4.010000000
O    -3.052000000    -1.180000000    -4.720000000
H    -3.546000000    -1.184000000    -3.900000000
H    -3.591000000    -1.687000000    -5.327000000
O     8.154000000     1.042000000    -2.197000000
H     7.825000000     0.264000000    -2.647000000
H     7.567000000     1.152000000    -1.449000000
O    -3.846000000     2.069000000    -5.081000000
H    -3.528000000     2.239000000    -4.194000000
H    -4.736000000     1.739000000    -4.957000000
O     3.737000000     4.674000000     0.320000000
H     3.034000000     4.103000000     0.630000000
H     4.390000000     4.650000000     1.019000000
O     1.220000000    -0.188000000    -5.281000000
H     0.637000000    -0.935000000    -5.417000000
H     1.936000000    -0.538000000    -4.750000000
O    -1.995000000     4.511000000     2.483000000
H    -1.692000000     3.787000000     3.031000000
H    -2.068000000     5.253000000     3.084000000
O     2.580000000     5.139000000     3.751000000
H     3.240000000     5.068000000     4.441000000
H     2.506000000     4.253000000     3.398000000
O     6.242000000     1.092000000     2.178000000
H     5.353000000     0.749000000     2.082000000
H     6.170000000     1.756000000     2.864000000
O     0.806000000    -4.015000000     3.654000000
H     0.931000000    -3.992000000     2.705000000
H     1.028000000    -3.130000000     3.946000000
O    -1.621000000     4.833000000    -0.725000000
H    -1.910000000     5.696000000    -0.430000000
H    -2.083000000     4.218000000    -0.155000000
O    -3.668000000     2.694000000     0.698000000
H    -4.463000000     2.593000000     1.222000000
H    -2.957000000     2.690000000     1.339000000
O    -5.834000000     0.946000000    -1.166000000
H    -6.471000000     1.230000000    -0.511000000
H    -5.686000000     0.020000000    -0.970000000
O     6.242000000    -1.719000000     4.562000000
H     6.177000000    -0.926000000     5.095000000
H     6.993000000    -2.190000000     4.924000000
O     3.980000000    -3.659000000     4.487000000
H     4.707000000    -3.036000000     4.479000000
H     3.704000000    -3.715000000     3.572000000
O    -1.365000000     2.656000000     4.440000000
H    -0.575000000     2.969000000     4.881000000
H    -1.335000000     1.705000000     4.542000000
O    -0.192000000    -2.756000000     0.398000000
H     0.129000000    -1.942000000     0.011000000
H    -0.725000000    -3.155000000    -0.290000000
O    -2.207000000     0.061000000     4.899000000
H    -2.151000000    -0.701000000     5.476000000
H    -2.834000000    -0.196000000     4.223000000
O     2.786000000     0.267000000     4.566000000
H     2.153000000    -0.396000000     4.842000000
H     2.940000000     0.080000000     3.640000000
O    -6.302000000     1.236000000    -4.211000000
H    -6.182000000     1.089000000    -3.273000000
H    -6.495000000     0.369000000    -4.567000000
O    -5.028000000    -2.092000000    -2.719000000
H    -4.716000000    -2.994000000    -2.652000000
H    -5.152000000    -1.813000000    -1.811000000
O     5.400000000    -2.121000000     1.937000000
H     4.715000000    -1.461000000     1.833000000
H     5.800000000    -1.920000000     2.783000000
O    -1.554000000     3.348000000    -3.455000000
H    -0.724000000     2.962000000    -3.735000000
H    -1.343000000     3.804000000    -2.640000000
O    -4.347000000    -0.863000000     3.186000000
H    -3.659000000    -1.476000000     2.925000000
H    -4.609000000    -0.436000000     2.370000000
O    -2.499000000    -4.115000000    -3.963000000
H    -2.913000000    -3.918000000    -4.803000000
H    -2.366000000    -5.063000000    -3.978000000
O     3.679000000     1.169000000    -2.724000000
H     3.697000000     1.110000000    -1.769000000
H     3.651000000     2.109000000    -2.905000000
O    -6.344000000    -1.726000000    -0.310000000
H    -7.231000000    -1.367000000    -0.263000000
H    -6.394000000    -2.552000000     0.171000000
O     5.598000000     3.351000000     3.791000000
H     6.423000000     3.668000000     4.157000000
H     4.966000000     3.450000000     4.503000000
O     5.038000000    -2.358000000    -0.785000000
H     5.600000000    -2.219000000    -0.022000000
H     4.496000000    -1.571000000    -0.831000000
O    -5.020000000     3.503000000    -1.602000000
H    -4.451000000     3.437000000    -0.835000000
H    -5.366000000     2.618000000    -1.720000000
O     4.111000000    -4.517000000     1.681000000
H     3.380000000    -4.615000000     1.071000000
H     4.525000000    -3.692000000     1.428000000
O    -3.474000000    -4.463000000     0.741000000
H    -2.666000000    -4.429000000     0.228000000
H    -4.072000000    -4.991000000     0.212000000
O     1.723000000    -4.781000000     0.327000000
H     1.081000000    -4.072000000     0.367000000
H     1.868000000    -4.920000000    -0.609000000
O     3.194000000    -1.530000000    -3.777000000
H     3.497000000    -0.835000000    -3.193000000
H     2.935000000    -2.240000000    -3.190000000
O     6.880000000    -0.871000000    -3.376000000
H     6.433000000    -1.614000000    -3.781000000
H     6.269000000    -0.560000000    -2.707000000
O     0.916000000     2.003000000    -3.507000000
H     1.798000000     2.062000000    -3.139000000
H     0.931000000     1.209000000    -4.041000000
O     0.521000000    -1.436000000     4.991000000
H    -0.436000000    -1.427000000     4.979000000
H     0.748000000    -1.680000000     5.889000000
O     3.446000000     4.133000000    -2.188000000
H     3.480000000     4.261000000    -1.240000000
H     2.863000000     4.824000000    -2.502000000
O    -2.415000000    -2.057000000     1.924000000
H    -2.753000000    -2.523000000     1.159000000
H    -1.466000000    -2.046000000     1.798000000
O    -1.609000000    -4.121000000    -1.249000000
H    -2.339000000    -3.967000000    -1.849000000
H    -1.198000000    -4.922000000    -1.574000000
O     3.414000000     3.167000000     5.887000000
H     3.388000000     2.418000000     5.292000000
H     4.076000000     2.933000000     6.538000000
O     0.647000000     3.161000000    -0.634000000
H    -0.086000000     3.761000000    -0.769000000
H     0.470000000     2.429000000    -1.224000000
O    -7.230000000     1.425000000     0.931000000
H    -6.788000000     1.791000000     1.697000000
H    -7.794000000     0.737000000     1.286000000
O    -1.645000000     0.755000000    -6.322000000
H    -1.695000000     1.471000000    -5.689000000
H    -2.132000000     0.039000000    -5.913000000
