161
-3031.30016
C     0.929000000    -0.085000000     1.140000000
H     1.530000000    -0.147000000     2.044000000
C    -0.485000000    -0.059000000     1.193000000
H    -0.998000000    -0.269000000     2.128000000
C    -1.239000000    -0.026000000     0.042000000
C    -2.710000000    -0.066000000     0.205000000
H    -3.035000000    -1.108000000     0.170000000
H    -2.963000000     0.385000000     1.167000000
H    -3.207000000     0.503000000    -0.583000000
C    -0.640000000     0.266000000    -1.222000000
H    -1.197000000     0.399000000    -2.146000000
C     0.819000000     0.173000000    -1.285000000
H     1.323000000     0.269000000    -2.243000000
C     1.523000000    -0.020000000    -0.096000000
C     3.070000000    -0.030000000    -0.138000000
O     3.633000000     0.234000000    -1.190000000
O     3.644000000    -0.419000000     0.820000000
O     2.971000000     3.422000000     0.776000000
H     2.088000000     3.704000000     1.012000000
H     3.092000000     2.595000000     1.241000000
O     6.226000000    -0.077000000    -1.322000000
H     6.462000000    -0.532000000    -2.131000000
H     5.275000000    -0.165000000    -1.267000000
O    -2.512000000     1.423000000     3.858000000
H    -1.595000000     1.669000000     3.981000000
H    -2.761000000     1.005000000     4.682000000
O    -1.822000000    -1.652000000     4.498000000
H    -2.494000000    -1.937000000     3.879000000
H    -2.235000000    -0.943000000     4.990000000
O     1.078000000    -0.655000000    -5.373000000
H     1.894000000    -0.704000000    -4.875000000
H     0.946000000    -1.544000000    -5.704000000
O    -4.381000000    -0.392000000    -4.983000000
H    -4.430000000    -0.955000000    -4.210000000
H    -5.089000000    -0.700000000    -5.549000000
O     3.692000000    -3.063000000    -2.552000000
H     2.912000000    -3.023000000    -1.998000000
H     3.568000000    -2.361000000    -3.191000000
O    -0.975000000    -6.314000000     1.064000000
H    -0.374000000    -6.702000000     0.429000000
H    -1.178000000    -5.450000000     0.705000000
O    -0.340000000     1.693000000    -4.571000000
H    -1.193000000     1.397000000    -4.888000000
H     0.256000000     0.973000000    -4.780000000
O    -1.845000000    -3.842000000    -0.171000000
H    -1.494000000    -3.340000000    -0.906000000
H    -2.778000000    -3.932000000    -0.366000000
O    -7.289000000     0.951000000     0.603000000
H    -7.121000000     1.886000000     0.720000000
H    -7.055000000     0.778000000    -0.309000000
O     0.189000000     2.995000000     2.160000000
H    -0.172000000     2.164000000     1.852000000
H     0.259000000     2.888000000     3.109000000
O     1.830000000    -4.512000000     3.944000000
H     1.080000000    -3.930000000     3.820000000
H     2.400000000    -4.332000000     3.197000000
O     5.556000000     0.986000000    -3.875000000
H     5.529000000     1.508000000    -3.073000000
H     6.371000000     0.489000000    -3.810000000
O    -3.898000000     3.926000000    -0.229000000
H    -4.390000000     3.387000000     0.390000000
H    -4.541000000     4.551000000    -0.566000000
O     6.920000000    -1.603000000     4.132000000
H     6.469000000    -0.911000000     3.648000000
H     7.760000000    -1.702000000     3.684000000
O     5.033000000    -3.851000000     3.296000000
H     5.516000000    -3.024000000     3.271000000
H     4.460000000    -3.817000000     2.530000000
O     0.403000000     2.847000000     4.798000000
H    -0.093000000     3.619000000     5.069000000
H     1.021000000     2.695000000     5.514000000
O    -3.001000000     0.163000000     6.389000000
H    -3.794000000     0.439000000     6.849000000
H    -2.522000000    -0.362000000     7.031000000
O     1.530000000     1.225000000     6.962000000
H     1.241000000     0.522000000     6.381000000
H     1.731000000     0.785000000     7.789000000
O    -0.181000000    -2.861000000    -2.309000000
H    -0.202000000    -3.473000000    -3.045000000
H    -0.210000000    -1.995000000    -2.717000000
O     0.824000000    -0.807000000     5.479000000
H     1.644000000    -1.286000000     5.359000000
H     0.170000000    -1.331000000     5.016000000
O     5.224000000     0.274000000     2.941000000
H     4.675000000     0.641000000     3.634000000
H     4.637000000     0.185000000     2.191000000
O    -2.818000000     3.119000000    -2.418000000
H    -3.053000000     3.455000000    -1.553000000
H    -1.864000000     3.050000000    -2.398000000
O    -3.456000000    -1.870000000    -2.673000000
H    -3.364000000    -2.724000000    -3.097000000
H    -3.544000000    -2.074000000    -1.742000000
O     6.060000000    -3.181000000    -1.131000000
H     6.023000000    -2.312000000    -0.731000000
H     5.342000000    -3.183000000    -1.765000000
O     2.703000000     4.223000000    -4.057000000
H     1.771000000     4.023000000    -3.977000000
H     3.106000000     3.791000000    -3.304000000
O    -6.790000000    -3.155000000     1.970000000
H    -6.806000000    -4.047000000     1.624000000
H    -7.535000000    -2.722000000     1.553000000
O     3.756000000     3.115000000    -1.733000000
H     3.882000000     2.188000000    -1.533000000
H     3.372000000     3.482000000    -0.936000000
O    -3.764000000    -2.521000000     2.769000000
H    -4.155000000    -3.063000000     2.084000000
H    -4.279000000    -1.714000000     2.760000000
O     2.793000000    -2.884000000     1.830000000
H     2.393000000    -3.191000000     1.016000000
H     2.985000000    -1.960000000     1.668000000
O    -4.574000000    -3.827000000    -0.773000000
H    -4.726000000    -3.988000000    -1.704000000
H    -5.001000000    -4.561000000    -0.331000000
O    -6.154000000     0.422000000    -1.834000000
H    -5.707000000     1.075000000    -2.372000000
H    -5.515000000    -0.283000000    -1.731000000
O     6.806000000     1.683000000     0.864000000
H     6.469000000     1.186000000     0.118000000
H     6.235000000     1.436000000     1.592000000
O     1.646000000    -3.755000000    -0.640000000
H     1.010000000    -3.409000000    -1.266000000
H     1.184000000    -4.469000000    -0.199000000
O    -4.957000000     2.215000000    -3.675000000
H    -4.249000000     2.713000000    -3.265000000
H    -4.510000000     1.591000000    -4.247000000
O     3.303000000    -0.596000000    -3.638000000
H     3.514000000    -0.483000000    -2.711000000
H     3.787000000     0.101000000    -4.080000000
O    -1.335000000    -3.627000000     6.383000000
H    -1.398000000    -3.013000000     5.652000000
H    -0.461000000    -3.481000000     6.744000000
O     0.059000000     2.967000000    -2.285000000
H     0.501000000     2.306000000    -1.752000000
H    -0.068000000     2.544000000    -3.134000000
O     3.378000000     1.962000000     4.436000000
H     3.296000000     2.902000000     4.599000000
H     2.521000000     1.603000000     4.668000000
O     5.448000000     5.206000000    -2.031000000
H     4.775000000     4.537000000    -1.907000000
H     6.189000000     4.733000000    -2.410000000
O    -2.661000000    -5.148000000     3.245000000
H    -2.133000000    -5.732000000     2.699000000
H    -2.335000000    -4.271000000     3.042000000
O    -0.164000000    -3.054000000     2.251000000
H     0.375000000    -2.273000000     2.130000000
H    -0.774000000    -3.041000000     1.513000000
O     2.613000000     1.406000000    -7.354000000
H     2.676000000     1.332000000    -6.402000000
H     2.097000000     0.645000000    -7.620000000
O     0.355000000     5.532000000    -1.357000000
H     0.377000000     4.576000000    -1.411000000
H    -0.517000000     5.732000000    -1.017000000
O    -4.667000000     2.161000000     2.264000000
H    -3.880000000     1.857000000     2.716000000
H    -5.141000000     1.359000000     2.044000000
O    -5.643000000    -0.195000000     2.412000000
H    -6.333000000    -0.123000000     1.752000000
H    -5.981000000     0.291000000     3.165000000
O    -2.665000000     1.236000000    -6.242000000
H    -3.257000000     1.019000000    -6.962000000
H    -2.416000000     0.388000000    -5.874000000
