161
-3021.62374
C    -1.109000000    -0.775000000    -0.509000000
H    -1.844000000    -1.262000000    -1.145000000
C    -0.707000000     0.495000000    -0.965000000
H    -1.094000000     0.947000000    -1.875000000
C     0.294000000     1.144000000    -0.325000000
C     0.795000000     2.523000000    -0.870000000
H     0.341000000     3.348000000    -0.317000000
H     1.870000000     2.486000000    -0.682000000
H     0.603000000     2.750000000    -1.921000000
C     0.958000000     0.482000000     0.710000000
H     1.802000000     0.906000000     1.249000000
C     0.552000000    -0.779000000     1.191000000
H     1.084000000    -1.303000000     1.982000000
C    -0.516000000    -1.383000000     0.564000000
C    -0.969000000    -2.780000000     0.920000000
O    -0.179000000    -3.461000000     1.647000000
O    -1.887000000    -3.344000000     0.344000000
O     3.974000000     5.497000000     3.214000000
H     3.651000000     6.381000000     3.040000000
H     3.267000000     4.922000000     2.920000000
O    -0.708000000     6.801000000    -1.155000000
H    -1.330000000     6.363000000    -0.574000000
H    -0.392000000     7.548000000    -0.646000000
O    -1.370000000     5.175000000    -3.113000000
H    -1.129000000     5.615000000    -2.298000000
H    -2.180000000     4.711000000    -2.904000000
O    -3.423000000    -5.022000000    -1.269000000
H    -3.042000000    -5.314000000    -2.097000000
H    -2.768000000    -4.429000000    -0.900000000
O    -2.020000000    -6.185000000     0.863000000
H    -2.544000000    -6.348000000     0.078000000
H    -1.952000000    -5.231000000     0.911000000
O     1.639000000    -1.815000000    -1.662000000
H     1.486000000    -2.746000000    -1.819000000
H     0.773000000    -1.459000000    -1.467000000
O    -2.948000000    -4.218000000     3.423000000
H    -2.145000000    -4.063000000     2.925000000
H    -2.732000000    -4.949000000     4.003000000
O     0.072000000    -5.183000000     5.197000000
H    -0.720000000    -5.646000000     4.925000000
H     0.145000000    -5.364000000     6.134000000
O     4.339000000     3.145000000    -1.019000000
H     4.758000000     2.565000000    -1.654000000
H     3.630000000     3.563000000    -1.507000000
O    -0.510000000    -2.127000000    -3.875000000
H    -0.509000000    -3.059000000    -3.656000000
H     0.411000000    -1.914000000    -4.021000000
O    -3.573000000    -1.615000000     4.059000000
H    -3.482000000    -1.583000000     5.011000000
H    -3.447000000    -2.538000000     3.837000000
O    -1.272000000     1.654000000     4.427000000
H    -1.567000000     1.042000000     5.101000000
H    -0.510000000     2.086000000     4.812000000
O     6.659000000    -0.666000000     0.008000000
H     6.055000000     0.001000000     0.332000000
H     7.464000000    -0.522000000     0.506000000
O    -4.524000000    -0.098000000    -2.490000000
H    -3.752000000    -0.287000000    -3.023000000
H    -5.003000000     0.565000000    -2.987000000
O     1.688000000     7.112000000     1.755000000
H     2.528000000     7.516000000     1.974000000
H     1.035000000     7.769000000     1.997000000
O     5.420000000     4.918000000     0.927000000
H     4.999000000     4.407000000     0.236000000
H     4.772000000     4.949000000     1.631000000
O     2.064000000     5.555000000    -0.970000000
H     1.594000000     5.295000000    -1.762000000
H     1.406000000     6.002000000    -0.437000000
O    -0.376000000    -8.680000000     0.765000000
H    -0.981000000    -7.963000000     0.573000000
H    -0.686000000    -9.037000000     1.598000000
O     3.627000000    -1.276000000    -0.083000000
H     4.052000000    -0.446000000    -0.299000000
H     2.924000000    -1.360000000    -0.727000000
O    -5.600000000    -6.145000000     0.354000000
H    -4.752000000    -5.793000000     0.083000000
H    -5.810000000    -6.802000000    -0.309000000
O     2.369000000    -6.112000000     3.915000000
H     1.477000000    -6.002000000     4.245000000
H     2.360000000    -5.694000000     3.054000000
O     0.299000000    -4.227000000    -1.652000000
H     0.338000000    -5.169000000    -1.487000000
H    -0.072000000    -3.858000000    -0.850000000
O    -2.394000000    -0.239000000    -4.440000000
H    -1.566000000    -0.695000000    -4.286000000
H    -2.178000000     0.440000000    -5.079000000
O     3.482000000     0.455000000     4.017000000
H     2.627000000     0.750000000     4.332000000
H     4.016000000     1.250000000     3.997000000
O    -4.475000000    -2.067000000     0.775000000
H    -4.025000000    -1.237000000     0.613000000
H    -3.793000000    -2.731000000     0.681000000
O    -0.477000000     0.585000000    -6.276000000
H    -0.005000000     0.118000000    -6.966000000
H    -1.197000000     1.022000000    -6.732000000
O    -2.724000000     5.582000000     0.357000000
H    -3.582000000     5.986000000     0.223000000
H    -2.907000000     4.644000000     0.405000000
O     4.981000000    -1.601000000     4.890000000
H     4.352000000    -0.924000000     4.640000000
H     4.744000000    -2.358000000     4.355000000
O    -3.332000000     1.019000000     2.710000000
H    -2.749000000     1.496000000     3.300000000
H    -3.124000000     0.097000000     2.862000000
O    -4.899000000     2.086000000    -4.172000000
H    -4.359000000     1.980000000    -4.955000000
H    -5.680000000     2.546000000    -4.481000000
O    -2.162000000    -5.881000000    -3.496000000
H    -1.788000000    -6.742000000    -3.679000000
H    -1.705000000    -5.289000000    -4.092000000
O     4.357000000    -3.560000000     3.329000000
H     4.771000000    -3.414000000     2.478000000
H     3.431000000    -3.369000000     3.181000000
O    -2.326000000     2.577000000     0.596000000
H    -1.889000000     1.824000000     0.198000000
H    -3.097000000     2.206000000     1.026000000
O    -6.222000000    -3.415000000     2.921000000
H    -6.492000000    -3.887000000     2.133000000
H    -5.377000000    -3.028000000     2.692000000
O     2.525000000     3.809000000     1.689000000
H     2.532000000     4.427000000     0.959000000
H     1.597000000     3.683000000     1.888000000
O    -5.802000000     1.625000000    -0.301000000
H    -5.329000000     1.076000000    -0.926000000
H    -6.447000000     1.038000000     0.093000000
O     3.054000000     2.865000000    -3.712000000
H     2.455000000     3.586000000    -3.905000000
H     2.651000000     2.101000000    -4.126000000
O     1.863000000     0.888000000    -4.846000000
H     1.808000000    -0.004000000    -4.502000000
H     1.009000000     1.041000000    -5.251000000
O     5.051000000     4.344000000    -4.553000000
H     4.266000000     3.815000000    -4.415000000
H     4.838000000     4.897000000    -5.305000000
O     1.165000000     4.703000000    -4.148000000
H     0.952000000     4.446000000    -5.045000000
H     0.338000000     4.620000000    -3.672000000
O    -3.873000000     4.281000000    -2.703000000
H    -3.833000000     3.468000000    -3.206000000
H    -4.761000000     4.299000000    -2.347000000
O    -0.537000000     3.696000000     2.544000000
H    -1.202000000     3.285000000     1.992000000
H    -0.600000000     3.233000000     3.379000000
O     1.527000000    -3.357000000     3.793000000
H     0.889000000    -3.169000000     3.104000000
H     1.038000000    -3.866000000     4.439000000
O     5.343000000    -3.759000000     0.588000000
H     6.252000000    -3.511000000     0.756000000
H     5.005000000    -3.063000000     0.024000000
O     1.129000000    -5.669000000     1.297000000
H     0.800000000    -4.804000000     1.541000000
H     0.351000000    -6.226000000     1.281000000
O    -6.260000000    -1.803000000    -1.467000000
H    -6.590000000    -1.452000000    -0.640000000
H    -5.473000000    -1.289000000    -1.648000000
O     4.730000000     1.372000000     0.833000000
H     3.965000000     0.980000000     1.255000000
H     4.389000000     2.155000000     0.401000000
O    -1.719000000     6.057000000     2.860000000
H    -1.086000000     5.347000000     2.970000000
H    -1.894000000     6.077000000     1.919000000
