161
-3051.95759
C     0.572000000     1.169000000     0.674000000
H     0.828000000     2.180000000     0.979000000
C     0.290000000     1.070000000    -0.679000000
H     0.324000000     2.018000000    -1.210000000
C    -0.145000000    -0.143000000    -1.181000000
C    -0.527000000    -0.175000000    -2.660000000
H    -0.314000000     0.743000000    -3.212000000
H    -0.091000000    -0.995000000    -3.234000000
H    -1.603000000    -0.337000000    -2.758000000
C    -0.473000000    -1.159000000    -0.360000000
H    -1.046000000    -2.007000000    -0.725000000
C    -0.197000000    -1.072000000     0.993000000
H    -0.490000000    -1.893000000     1.642000000
C     0.366000000     0.092000000     1.596000000
C     0.785000000     0.143000000     2.979000000
O     0.815000000    -0.873000000     3.641000000
O     0.906000000     1.236000000     3.518000000
O    -3.877000000    -1.165000000     1.430000000
H    -3.535000000    -1.972000000     1.815000000
H    -4.000000000    -1.375000000     0.504000000
O     1.790000000     4.058000000    -0.130000000
H     1.145000000     4.724000000    -0.366000000
H     2.537000000     4.555000000     0.202000000
O    -0.335000000     5.264000000     6.042000000
H    -1.242000000     5.300000000     5.740000000
H    -0.169000000     4.333000000     6.194000000
O    -0.083000000     2.536000000     6.972000000
H     0.021000000     1.731000000     7.479000000
H    -0.068000000     2.250000000     6.059000000
O     3.627000000     2.080000000    -0.510000000
H     3.047000000     2.823000000    -0.345000000
H     3.309000000     1.704000000    -1.331000000
O    -3.666000000    -3.014000000    -0.945000000
H    -3.604000000    -3.291000000    -1.859000000
H    -3.939000000    -3.802000000    -0.475000000
O    -0.949000000     3.408000000    -2.705000000
H    -0.775000000     3.489000000    -3.642000000
H    -1.522000000     2.645000000    -2.633000000
O    -5.408000000    -1.014000000    -4.495000000
H    -5.786000000    -1.888000000    -4.395000000
H    -5.089000000    -0.790000000    -3.621000000
O     3.124000000     5.320000000     4.862000000
H     2.516000000     5.913000000     5.303000000
H     2.573000000     4.807000000     4.272000000
O    -0.935000000    -4.551000000    -0.458000000
H    -1.056000000    -4.296000000    -1.372000000
H     0.010000000    -4.498000000    -0.317000000
O    -3.740000000    -2.279000000     5.968000000
H    -3.394000000    -2.678000000     6.767000000
H    -2.984000000    -2.221000000     5.384000000
O     1.446000000    -5.580000000     3.520000000
H     1.683000000    -4.680000000     3.297000000
H     1.091000000    -5.942000000     2.708000000
O    -1.451000000    -1.719000000     4.373000000
H    -0.551000000    -1.463000000     4.171000000
H    -1.672000000    -2.367000000     3.704000000
O    -4.305000000     1.380000000    -5.328000000
H    -3.647000000     1.131000000    -5.978000000
H    -4.830000000     0.590000000    -5.204000000
O    -2.532000000     0.372000000     7.719000000
H    -2.363000000     0.086000000     6.821000000
H    -3.282000000     0.963000000     7.644000000
O     3.412000000     5.608000000     1.572000000
H     3.914000000     6.389000000     1.806000000
H     3.380000000     5.093000000     2.378000000
O     2.610000000     1.496000000    -3.114000000
H     3.300000000     1.197000000    -3.706000000
H     1.796000000     1.227000000    -3.540000000
O    -1.385000000    -2.676000000    -5.198000000
H    -0.935000000    -1.988000000    -5.689000000
H    -0.765000000    -2.927000000    -4.514000000
O     0.453000000    -0.952000000    -6.445000000
H     1.338000000    -1.200000000    -6.710000000
H     0.582000000    -0.280000000    -5.776000000
O     3.018000000     4.208000000    -4.428000000
H     2.460000000     3.469000000    -4.185000000
H     3.447000000     3.929000000    -5.236000000
O    -3.314000000     0.518000000     4.950000000
H    -4.177000000     0.357000000     4.570000000
H    -2.830000000    -0.294000000     4.800000000
O    -0.245000000     5.528000000    -1.229000000
H    -0.356000000     4.799000000    -1.839000000
H    -0.938000000     5.406000000    -0.581000000
O    -3.500000000     2.065000000    -2.877000000
H    -3.802000000     1.220000000    -2.543000000
H    -3.745000000     2.056000000    -3.803000000
O     2.573000000    -2.594000000    -4.043000000
H     2.652000000    -2.377000000    -3.114000000
H     3.468000000    -2.541000000    -4.378000000
O     2.257000000    -2.880000000     2.775000000
H     2.908000000    -2.688000000     2.099000000
H     1.732000000    -2.082000000     2.835000000
O     0.421000000     6.654000000     1.981000000
H     1.307000000     6.327000000     1.827000000
H    -0.115000000     5.865000000     2.060000000
O    -1.197000000     2.494000000     4.380000000
H    -1.956000000     1.922000000     4.261000000
H    -0.470000000     2.011000000     3.989000000
O     4.828000000    -2.333000000     5.101000000
H     4.076000000    -2.506000000     4.535000000
H     4.450000000    -1.948000000     5.892000000
O    -2.164000000     0.807000000    -6.738000000
H    -1.900000000     1.634000000    -7.140000000
H    -1.356000000     0.296000000    -6.687000000
O     2.222000000    -0.774000000     6.199000000
H     2.209000000     0.055000000     6.678000000
H     1.699000000    -0.606000000     5.416000000
O    -0.828000000    -6.948000000     1.545000000
H    -0.008000000    -7.410000000     1.371000000
H    -0.874000000    -6.277000000     0.863000000
O     3.962000000    -1.615000000     8.159000000
H     3.411000000    -1.730000000     8.933000000
H     3.350000000    -1.378000000     7.462000000
O     1.443000000     3.976000000     3.338000000
H     0.637000000     4.088000000     2.835000000
H     1.499000000     3.034000000     3.494000000
O     3.063000000     2.045000000     5.293000000
H     3.642000000     2.452000000     4.647000000
H     2.258000000     1.861000000     4.809000000
O    -2.920000000     1.629000000     1.502000000
H    -3.785000000     1.819000000     1.864000000
H    -2.945000000     0.694000000     1.299000000
O     1.887000000    -3.570000000     6.480000000
H     1.465000000    -4.085000000     5.792000000
H     1.853000000    -2.669000000     6.158000000
O    -2.598000000    -3.338000000     2.043000000
H    -2.177000000    -3.270000000     1.186000000
H    -2.470000000    -4.251000000     2.301000000
O    -2.716000000     3.544000000    -0.353000000
H    -2.536000000     3.151000000    -1.207000000
H    -2.448000000     2.878000000     0.279000000
O     4.864000000     3.073000000     3.280000000
H     5.747000000     2.812000000     3.019000000
H     4.999000000     3.790000000     3.900000000
O    -1.200000000     4.405000000     2.425000000
H    -1.487000000     3.904000000     3.188000000
H    -1.909000000     4.302000000     1.790000000
O     3.353000000    -1.414000000    -1.213000000
H     2.967000000    -0.624000000    -1.592000000
H     3.054000000    -1.413000000    -0.303000000
O     0.239000000    -3.942000000    -3.013000000
H     0.698000000    -4.572000000    -2.459000000
H     0.937000000    -3.438000000    -3.432000000
O    -1.380000000     3.350000000    -6.952000000
H    -1.813000000     3.821000000    -7.665000000
H    -1.324000000     3.990000000    -6.243000000
O     1.442000000     1.693000000    -5.771000000
H     0.763000000     2.154000000    -6.264000000
H     2.229000000     1.780000000    -6.310000000
O     1.880000000    -5.085000000     0.665000000
H     2.269000000    -4.652000000     1.425000000
H     2.616000000    -5.238000000     0.073000000
O     3.527000000     0.100000000     1.247000000
H     3.847000000     0.636000000     1.972000000
H     3.249000000     0.733000000     0.585000000
O    -3.433000000    -3.779000000    -3.673000000
H    -2.908000000    -3.290000000    -4.307000000
H    -3.559000000    -4.637000000    -4.077000000
O    -4.666000000    -0.247000000    -1.910000000
H    -4.468000000    -1.177000000    -1.799000000
H    -5.606000000    -0.180000000    -1.745000000
