161
-3048.59765
C     0.242000000     1.288000000     0.646000000
H     0.300000000     2.263000000     1.122000000
C    -0.775000000     1.016000000    -0.278000000
H    -1.554000000     1.725000000    -0.547000000
C    -0.889000000    -0.274000000    -0.823000000
C    -1.940000000    -0.540000000    -1.862000000
H    -1.750000000    -1.457000000    -2.424000000
H    -2.871000000    -0.694000000    -1.313000000
H    -2.048000000     0.323000000    -2.522000000
C     0.013000000    -1.292000000    -0.463000000
H    -0.163000000    -2.320000000    -0.769000000
C     1.029000000    -0.971000000     0.465000000
H     1.714000000    -1.796000000     0.644000000
C     1.160000000     0.289000000     1.077000000
C     2.249000000     0.721000000     2.045000000
O     2.874000000    -0.145000000     2.610000000
O     2.410000000     1.870000000     2.386000000
O    -6.480000000     0.174000000     0.945000000
H    -6.269000000    -0.739000000     0.749000000
H    -6.380000000     0.244000000     1.894000000
O    -2.590000000    -6.886000000    -1.906000000
H    -1.677000000    -7.174000000    -1.898000000
H    -2.551000000    -5.974000000    -2.196000000
O    -1.394000000     3.263000000     5.275000000
H    -0.644000000     3.246000000     5.869000000
H    -1.636000000     2.344000000     5.168000000
O     2.227000000     6.237000000    -1.051000000
H     1.386000000     6.187000000    -0.597000000
H     2.365000000     5.355000000    -1.398000000
O     0.272000000     2.943000000    -4.663000000
H    -0.574000000     3.145000000    -4.263000000
H     0.343000000     1.991000000    -4.606000000
O     6.034000000    -3.076000000     2.058000000
H     6.969000000    -3.275000000     2.002000000
H     5.966000000    -2.166000000     1.768000000
O    -4.993000000    -4.549000000     0.139000000
H    -5.441000000    -4.452000000    -0.702000000
H    -4.618000000    -5.429000000     0.110000000
O     3.912000000     1.097000000    -0.941000000
H     3.838000000     1.589000000    -0.123000000
H     4.439000000     0.332000000    -0.714000000
O     4.329000000    -4.373000000    -0.924000000
H     4.790000000    -3.550000000    -0.762000000
H     4.485000000    -4.893000000    -0.136000000
O     0.285000000    -4.326000000     2.846000000
H     0.395000000    -5.184000000     2.436000000
H     1.171000000    -3.967000000     2.894000000
O     3.996000000     5.383000000     4.862000000
H     3.272000000     5.074000000     4.317000000
H     4.204000000     4.639000000     5.428000000
O     1.922000000     4.453000000     3.327000000
H     1.019000000     4.253000000     3.577000000
H     2.318000000     3.598000000     3.158000000
O     5.242000000    -0.233000000     1.281000000
H     5.699000000     0.079000000     2.062000000
H     4.343000000    -0.382000000     1.574000000
O    -1.870000000     5.242000000     0.718000000
H    -2.570000000     5.886000000     0.608000000
H    -2.145000000     4.715000000     1.468000000
O     0.226000000     0.092000000    -4.245000000
H     0.036000000    -0.376000000    -3.432000000
H     0.981000000    -0.366000000    -4.614000000
O     1.619000000     3.689000000    -1.874000000
H     0.676000000     3.768000000    -1.733000000
H     1.701000000     3.381000000    -2.777000000
O    -1.695000000     0.489000000     4.862000000
H    -1.414000000    -0.237000000     4.305000000
H    -2.576000000     0.247000000     5.146000000
O    -3.656000000     1.371000000    -4.797000000
H    -3.836000000     1.800000000    -3.960000000
H    -4.176000000     1.862000000    -5.433000000
O    -1.874000000    -0.281000000    -5.806000000
H    -2.508000000     0.389000000    -5.551000000
H    -1.147000000    -0.168000000    -5.192000000
O     3.597000000     3.514000000     6.692000000
H     3.411000000     2.812000000     6.069000000
H     4.445000000     3.281000000     7.069000000
O    -3.535000000    -3.998000000    -4.454000000
H    -3.130000000    -4.339000000    -3.657000000
H    -2.807000000    -3.889000000    -5.065000000
O    -4.908000000     1.796000000    -0.649000000
H    -4.077000000     1.469000000    -0.306000000
H    -5.574000000     1.376000000    -0.104000000
O     4.334000000    -4.485000000     3.667000000
H     4.993000000    -4.277000000     3.005000000
H     3.762000000    -3.718000000     3.684000000
O     0.495000000     6.365000000     1.201000000
H    -0.202000000     5.729000000     1.037000000
H     1.068000000     5.934000000     1.836000000
O     3.187000000     1.563000000     5.044000000
H     2.802000000     0.793000000     5.463000000
H     2.965000000     1.469000000     4.118000000
O    -1.318000000    -3.890000000     0.671000000
H    -0.573000000    -3.932000000     1.271000000
H    -2.085000000    -3.982000000     1.236000000
O    -2.450000000     4.125000000    -3.891000000
H    -2.876000000     3.968000000    -4.733000000
H    -2.149000000     5.032000000    -3.939000000
O     0.948000000     3.438000000     6.691000000
H     0.932000000     3.535000000     7.644000000
H     1.872000000     3.523000000     6.457000000
O     2.394000000    -2.753000000     3.368000000
H     2.329000000    -2.804000000     4.322000000
H     2.487000000    -1.818000000     3.185000000
O     1.497000000    -2.278000000    -2.927000000
H     2.094000000    -1.974000000    -2.243000000
H     0.954000000    -2.937000000    -2.495000000
O     6.839000000     0.146000000     3.553000000
H     7.161000000     0.918000000     4.018000000
H     6.323000000    -0.329000000     4.204000000
O    -0.068000000    -4.939000000    -4.273000000
H     0.787000000    -4.800000000    -4.681000000
H    -0.350000000    -5.795000000    -4.595000000
O    -1.430000000    -3.277000000    -5.981000000
H    -0.966000000    -3.655000000    -5.234000000
H    -1.232000000    -2.342000000    -5.939000000
O     5.654000000    -1.437000000     5.436000000
H     4.780000000    -1.794000000     5.279000000
H     5.525000000    -0.779000000     6.119000000
O    -5.275000000    -1.419000000    -4.711000000
H    -4.738000000    -2.050000000    -4.231000000
H    -5.518000000    -0.765000000    -4.056000000
O     5.060000000    -1.394000000    -1.317000000
H     5.675000000    -0.985000000    -0.708000000
H     5.259000000    -0.993000000    -2.163000000
O     5.574000000     5.141000000     2.140000000
H     4.691000000     5.348000000     2.448000000
H     5.474000000     4.315000000     1.666000000
O    -1.215000000    -1.755000000     3.581000000
H    -1.491000000    -1.651000000     2.671000000
H    -0.517000000    -2.410000000     3.547000000
O    -1.978000000     3.122000000     2.523000000
H    -1.726000000     2.199000000     2.510000000
H    -2.020000000     3.346000000     3.453000000
O    -1.024000000     4.227000000    -1.673000000
H    -1.384000000     4.453000000    -0.815000000
H    -1.717000000     3.722000000    -2.098000000
O     3.314000000     1.796000000    -3.590000000
H     3.637000000     1.890000000    -2.694000000
H     2.578000000     1.188000000    -3.517000000
O     1.353000000    -4.797000000    -1.013000000
H     1.821000000    -5.566000000    -1.339000000
H     2.033000000    -4.252000000    -0.619000000
O     1.738000000    -0.407000000     6.894000000
H     0.841000000    -0.338000000     7.222000000
H     2.286000000    -0.174000000     7.644000000
O    -1.856000000    -4.099000000    -2.076000000
H    -1.074000000    -3.868000000    -2.577000000
H    -1.600000000    -3.976000000    -1.162000000
O     3.391000000     3.621000000     0.748000000
H     3.107000000     3.142000000     1.526000000
H     2.621000000     3.633000000     0.179000000
O    -5.416000000     3.290000000    -2.744000000
H    -5.216000000     4.191000000    -2.489000000
H    -5.191000000     2.768000000    -1.974000000
O    -3.698000000    -3.818000000     2.375000000
H    -4.096000000    -4.062000000     1.539000000
H    -4.431000000    -3.793000000     2.990000000
O    -4.479000000    -2.693000000    -1.672000000
H    -3.665000000    -2.938000000    -2.112000000
H    -4.412000000    -3.092000000    -0.805000000
