161
-3043.72435
C     1.085000000     0.939000000     0.502000000
H     1.829000000     1.698000000     0.732000000
C    -0.120000000     1.307000000    -0.118000000
H    -0.389000000     2.324000000    -0.394000000
C    -1.058000000     0.349000000    -0.505000000
C    -2.339000000     0.735000000    -1.114000000
H    -2.439000000     1.822000000    -1.067000000
H    -2.385000000     0.471000000    -2.172000000
H    -3.062000000     0.349000000    -0.392000000
C    -0.788000000    -1.005000000    -0.435000000
H    -1.506000000    -1.727000000    -0.817000000
C     0.466000000    -1.426000000     0.089000000
H     0.784000000    -2.463000000     0.157000000
C     1.307000000    -0.405000000     0.661000000
C     2.533000000    -0.852000000     1.418000000
O     2.768000000    -2.069000000     1.556000000
O     3.316000000    -0.040000000     1.896000000
O     6.640000000    -3.076000000    -0.764000000
H     5.704000000    -3.275000000    -0.798000000
H     6.925000000    -3.107000000    -1.677000000
O     3.513000000     4.280000000     1.481000000
H     3.347000000     5.219000000     1.574000000
H     4.416000000     4.167000000     1.778000000
O     0.115000000     5.389000000     3.970000000
H     0.352000000     5.250000000     4.888000000
H    -0.131000000     4.520000000     3.653000000
O     3.746000000    -3.349000000    -0.528000000
H     3.596000000    -2.952000000     0.330000000
H     2.886000000    -3.675000000    -0.794000000
O    -0.618000000     4.879000000    -1.230000000
H    -0.764000000     5.028000000    -0.296000000
H     0.272000000     4.531000000    -1.282000000
O    -4.773000000    -1.797000000    -2.816000000
H    -4.363000000    -2.134000000    -3.613000000
H    -5.013000000    -2.580000000    -2.321000000
O     0.901000000    -3.831000000     2.646000000
H     1.470000000    -4.486000000     3.050000000
H     1.503000000    -3.186000000     2.276000000
O     7.225000000    -1.824000000     4.546000000
H     6.433000000    -1.299000000     4.427000000
H     7.499000000    -2.049000000     3.657000000
O    -3.890000000     3.630000000    -1.964000000
H    -4.228000000     4.346000000    -2.502000000
H    -3.779000000     2.902000000    -2.575000000
O    -1.162000000    -4.695000000     4.598000000
H    -2.009000000    -4.265000000     4.481000000
H    -0.591000000    -4.280000000     3.953000000
O    -3.377000000    -3.429000000     3.843000000
H    -3.201000000    -2.626000000     3.353000000
H    -4.133000000    -3.215000000     4.390000000
O    -5.975000000     0.388000000    -1.897000000
H    -6.549000000     0.416000000    -2.663000000
H    -5.257000000    -0.189000000    -2.157000000
O    -3.137000000    -1.259000000     2.161000000
H    -3.570000000    -1.509000000     1.345000000
H    -3.458000000    -0.376000000     2.343000000
O    -2.548000000     6.777000000    -1.525000000
H    -2.333000000     7.008000000    -2.429000000
H    -2.046000000     5.979000000    -1.356000000
O     7.268000000     0.619000000     1.845000000
H     7.241000000     1.388000000     1.275000000
H     6.823000000    -0.065000000     1.346000000
O     4.051000000    -4.495000000     2.627000000
H     3.520000000    -4.936000000     1.963000000
H     4.242000000    -3.637000000     2.249000000
O     3.352000000     2.156000000     3.223000000
H     3.521000000     1.352000000     2.732000000
H     3.085000000     2.791000000     2.559000000
O    -6.764000000    -1.716000000     0.103000000
H    -6.773000000    -1.014000000    -0.547000000
H    -7.158000000    -1.325000000     0.883000000
O     0.941000000     2.315000000    -3.585000000
H     0.714000000     3.045000000    -4.162000000
H     1.283000000     2.732000000    -2.795000000
O    -1.614000000     1.772000000    -6.594000000
H    -1.396000000     2.520000000    -7.149000000
H    -1.811000000     2.157000000    -5.740000000
O    -4.856000000    -3.852000000     0.660000000
H    -5.589000000    -3.256000000     0.511000000
H    -5.020000000    -4.221000000     1.528000000
O     5.243000000     0.360000000    -0.169000000
H     4.469000000     0.065000000    -0.648000000
H     4.975000000     0.348000000     0.750000000
O    -0.604000000    -2.212000000    -4.644000000
H    -0.644000000    -2.852000000    -3.933000000
H     0.007000000    -1.545000000    -4.331000000
O     2.095000000     4.117000000    -1.092000000
H     2.811000000     4.542000000    -1.565000000
H     2.422000000     4.023000000    -0.197000000
O     1.268000000    -0.415000000    -3.010000000
H     0.899000000     0.380000000    -3.394000000
H     1.315000000    -0.228000000    -2.072000000
O     7.665000000    -2.662000000     1.937000000
H     7.207000000    -2.922000000     1.138000000
H     8.229000000    -1.938000000     1.664000000
O     6.899000000     1.699000000     4.452000000
H     6.016000000     1.380000000     4.640000000
H     7.131000000     1.287000000     3.620000000
O    -1.987000000     2.485000000     2.898000000
H    -1.313000000     1.844000000     3.125000000
H    -2.789000000     1.970000000     2.814000000
O    -3.125000000    -2.408000000    -5.455000000
H    -2.615000000    -2.812000000    -6.157000000
H    -2.490000000    -1.877000000    -4.973000000
O    -4.661000000     2.362000000    -4.563000000
H    -5.009000000     2.889000000    -5.283000000
H    -3.725000000     2.562000000    -4.550000000
O    -7.217000000     0.982000000     0.550000000
H    -7.951000000     1.597000000     0.547000000
H    -6.818000000     1.081000000    -0.314000000
O     1.422000000     2.035000000     5.135000000
H     0.702000000     1.502000000     4.800000000
H     2.145000000     1.869000000     4.530000000
O     4.920000000    -0.544000000     3.874000000
H     4.257000000    -1.002000000     4.391000000
H     4.478000000    -0.332000000     3.052000000
O    -0.428000000     0.309000000     3.560000000
H    -0.250000000    -0.191000000     2.764000000
H    -0.776000000    -0.336000000     4.176000000
O    -4.471000000     3.853000000     0.698000000
H    -3.689000000     3.961000000     1.240000000
H    -4.132000000     3.654000000    -0.175000000
O     3.757000000     4.285000000     4.780000000
H     4.212000000     3.975000000     5.563000000
H     3.435000000     3.487000000     4.359000000
O    -4.503000000     1.218000000     2.532000000
H    -5.055000000     1.585000000     1.842000000
H    -4.967000000     1.422000000     3.344000000
O     2.693000000    -1.713000000     4.659000000
H     2.154000000    -1.659000000     5.448000000
H     2.147000000    -1.335000000     3.970000000
O    -1.714000000     5.058000000     1.824000000
H    -1.565000000     4.201000000     2.224000000
H    -2.466000000     5.415000000     2.297000000
O     3.305000000    -4.289000000     5.423000000
H     3.831000000    -4.080000000     4.651000000
H     2.867000000    -3.467000000     5.644000000
O     2.793000000    -5.794000000     0.605000000
H     2.049000000    -6.396000000     0.634000000
H     2.687000000    -5.323000000    -0.221000000
O     1.628000000    -4.369000000    -1.481000000
H     1.851000000    -4.709000000    -2.348000000
H     0.691000000    -4.179000000    -1.533000000
O    -1.128000000    -5.122000000     0.961000000
H    -0.682000000    -4.361000000     1.335000000
H    -2.058000000    -4.901000000     1.008000000
O     6.461000000     2.477000000    -1.501000000
H     7.297000000     2.568000000    -1.045000000
H     6.066000000     1.692000000    -1.122000000
O     0.444000000    -7.273000000     0.594000000
H     0.148000000    -7.916000000    -0.050000000
H    -0.126000000    -6.516000000     0.456000000
O    -0.882000000    -4.251000000    -3.135000000
H    -1.536000000    -4.720000000    -2.618000000
H    -1.016000000    -4.561000000    -4.030000000
O     4.140000000    -0.502000000    -3.232000000
H     4.334000000     0.075000000    -3.970000000
H     3.191000000    -0.440000000    -3.122000000
O    -2.137000000     3.566000000    -4.469000000
H    -2.291000000     4.401000000    -4.910000000
H    -1.579000000     3.788000000    -3.724000000
