161
-3069.26635
C    -0.251000000     1.041000000     1.000000000
H    -0.502000000     1.836000000     1.698000000
C    -0.715000000     1.070000000    -0.295000000
H    -1.213000000     1.968000000    -0.655000000
C    -0.453000000     0.030000000    -1.154000000
C    -0.989000000     0.083000000    -2.501000000
H    -0.962000000    -0.904000000    -2.968000000
H    -2.047000000     0.350000000    -2.522000000
H    -0.461000000     0.874000000    -3.037000000
C     0.308000000    -1.035000000    -0.711000000
H     0.458000000    -1.823000000    -1.445000000
C     0.939000000    -1.076000000     0.580000000
H     1.561000000    -1.928000000     0.843000000
C     0.637000000    -0.033000000     1.448000000
C     1.060000000    -0.162000000     2.883000000
O     1.203000000    -1.200000000     3.434000000
O     1.430000000     0.917000000     3.397000000
O    -3.918000000    -2.064000000    -1.419000000
H    -3.415000000    -2.813000000    -1.741000000
H    -4.641000000    -1.977000000    -2.040000000
O     1.464000000     4.085000000    -0.225000000
H     1.654000000     3.834000000     0.680000000
H     1.849000000     4.956000000    -0.317000000
O     1.232000000     5.776000000     4.856000000
H     0.646000000     6.533000000     4.821000000
H     0.650000000     5.027000000     4.980000000
O    -2.687000000     4.138000000    -0.609000000
H    -3.190000000     3.489000000    -0.117000000
H    -2.591000000     3.754000000    -1.481000000
O     0.884000000    -4.878000000     2.736000000
H     0.019000000    -4.541000000     2.972000000
H     1.496000000    -4.230000000     3.083000000
O    -2.230000000    -4.821000000    -3.273000000
H    -1.589000000    -4.265000000    -3.715000000
H    -1.787000000    -5.662000000    -3.168000000
O    -2.194000000    -1.227000000     5.199000000
H    -2.034000000    -1.839000000     5.918000000
H    -1.782000000    -1.638000000     4.439000000
O     2.562000000    -6.531000000     1.409000000
H     3.050000000    -6.714000000     2.212000000
H     1.906000000    -5.885000000     1.670000000
O    -2.431000000    -0.376000000    -6.851000000
H    -2.045000000    -0.421000000    -7.726000000
H    -2.361000000    -1.268000000    -6.512000000
O    -1.205000000    -2.573000000     2.996000000
H    -0.253000000    -2.474000000     3.027000000
H    -1.452000000    -2.246000000     2.131000000
O    -2.923000000     1.210000000     4.722000000
H    -2.640000000     0.314000000     4.905000000
H    -3.179000000     1.559000000     5.576000000
O     0.488000000    -1.304000000     6.564000000
H     1.072000000    -0.548000000     6.631000000
H     0.505000000    -1.537000000     5.635000000
O     3.616000000     4.662000000     3.863000000
H     2.806000000     5.157000000     3.979000000
H     4.297000000     5.331000000     3.790000000
O     1.896000000     2.129000000    -4.615000000
H     2.164000000     2.739000000    -5.302000000
H     1.083000000     2.498000000    -4.270000000
O     0.681000000    -3.904000000    -4.178000000
H     1.299000000    -4.406000000    -3.647000000
H     1.221000000    -3.250000000    -4.622000000
O     6.157000000    -0.700000000     1.075000000
H     5.640000000    -1.504000000     1.020000000
H     5.537000000    -0.036000000     1.374000000
O    -3.653000000     0.101000000     1.953000000
H    -3.613000000     0.857000000     2.539000000
H    -3.052000000    -0.535000000     2.339000000
O    -1.389000000     6.857000000    -0.994000000
H    -1.769000000     5.983000000    -1.072000000
H    -1.085000000     6.906000000    -0.087000000
O    -3.631000000     3.402000000    -3.186000000
H    -3.808000000     2.466000000    -3.093000000
H    -3.070000000     3.465000000    -3.959000000
O     2.666000000    -2.515000000    -5.410000000
H     1.997000000    -1.970000000    -5.825000000
H     3.229000000    -1.893000000    -4.949000000
O     3.946000000     0.537000000     1.865000000
H     3.783000000     0.093000000     1.033000000
H     3.077000000     0.649000000     2.250000000
O    -1.349000000     4.027000000     3.632000000
H    -0.956000000     3.301000000     4.117000000
H    -2.110000000     3.642000000     3.199000000
O    -4.834000000    -3.864000000    -3.334000000
H    -5.384000000    -4.133000000    -4.069000000
H    -4.023000000    -4.361000000    -3.447000000
O     5.755000000     2.542000000     2.487000000
H     5.070000000     1.877000000     2.548000000
H     5.986000000     2.564000000     1.559000000
O    -3.966000000     1.338000000    -5.162000000
H    -3.912000000     0.943000000    -4.292000000
H    -3.283000000     0.898000000    -5.668000000
O    -4.593000000     1.957000000    -0.114000000
H    -4.330000000     1.190000000     0.395000000
H    -5.268000000     2.378000000     0.418000000
O     0.399000000     3.924000000    -2.736000000
H     0.801000000     3.571000000    -1.943000000
H     0.740000000     4.816000000    -2.801000000
O     3.783000000    -0.654000000     5.594000000
H     3.562000000     0.275000000     5.668000000
H     3.357000000    -0.938000000     4.785000000
O    -1.570000000    -3.070000000    -5.957000000
H    -2.113000000    -3.831000000    -6.159000000
H    -0.988000000    -3.369000000    -5.258000000
O    -5.479000000    -1.660000000     0.759000000
H    -4.877000000    -1.906000000     0.056000000
H    -4.923000000    -1.232000000     1.411000000
O     1.904000000     3.313000000     2.355000000
H     2.397000000     3.742000000     3.053000000
H     1.743000000     2.428000000     2.684000000
O     0.289000000     2.765000000     5.386000000
H     0.689000000     2.159000000     4.764000000
H    -0.221000000     2.205000000     5.972000000
O     4.543000000    -2.859000000     2.015000000
H     4.553000000    -3.302000000     1.167000000
H     3.823000000    -3.272000000     2.492000000
O     3.185000000     2.222000000     5.257000000
H     3.552000000     2.947000000     4.751000000
H     2.468000000     1.891000000     4.716000000
O     4.205000000    -0.716000000    -1.205000000
H     5.091000000    -0.440000000    -1.440000000
H     3.744000000     0.100000000    -1.013000000
O    -3.684000000     2.878000000     2.659000000
H    -4.510000000     3.249000000     2.971000000
H    -3.400000000     2.298000000     3.365000000
O     2.574000000    -3.449000000     3.965000000
H     2.876000000    -3.604000000     4.860000000
H     2.062000000    -2.642000000     4.022000000
O    -2.208000000    -1.755000000     0.710000000
H    -1.439000000    -1.218000000     0.521000000
H    -2.833000000    -1.529000000     0.020000000
O    -5.494000000     4.877000000    -0.580000000
H    -5.797000000     4.563000000    -1.432000000
H    -4.552000000     4.708000000    -0.584000000
O    -2.202000000     6.793000000     1.913000000
H    -3.029000000     7.227000000     2.122000000
H    -2.299000000     5.910000000     2.269000000
O     4.343000000     2.051000000    -3.245000000
H     3.822000000     1.940000000    -4.040000000
H     3.702000000     2.043000000    -2.535000000
O    -1.250000000     3.848000000    -4.766000000
H    -0.659000000     3.884000000    -5.519000000
H    -0.813000000     4.371000000    -4.094000000
O     3.894000000    -3.392000000    -0.785000000
H     4.357000000    -3.981000000    -1.382000000
H     4.148000000    -2.515000000    -1.070000000
O    -1.700000000    -1.991000000     7.856000000
H    -2.247000000    -1.209000000     7.930000000
H    -0.849000000    -1.661000000     7.569000000
O     0.900000000    -0.539000000    -6.072000000
H     0.386000000    -0.022000000    -6.692000000
H     0.838000000    -0.055000000    -5.248000000
O     1.854000000    -4.821000000    -1.944000000
H     2.261000000    -4.138000000    -1.410000000
H     2.303000000    -5.626000000    -1.685000000
O     2.433000000     1.495000000    -1.066000000
H     1.545000000     1.182000000    -0.892000000
H     2.433000000     2.401000000    -0.757000000
O    -4.858000000     0.970000000    -2.668000000
H    -5.545000000     0.315000000    -2.543000000
H    -4.983000000     1.590000000    -1.949000000
