161
-3058.26427
C     1.193000000     0.596000000    -0.576000000
H     1.974000000     1.226000000    -0.994000000
C    -0.142000000     1.010000000    -0.811000000
H    -0.349000000     1.911000000    -1.383000000
C    -1.190000000     0.329000000    -0.197000000
C    -2.648000000     0.761000000    -0.372000000
H    -2.746000000     1.554000000    -1.116000000
H    -3.254000000    -0.141000000    -0.481000000
H    -2.921000000     1.308000000     0.533000000
C    -0.917000000    -0.832000000     0.498000000
H    -1.773000000    -1.402000000     0.852000000
C     0.409000000    -1.190000000     0.786000000
H     0.670000000    -2.129000000     1.269000000
C     1.526000000    -0.451000000     0.277000000
C     3.004000000    -0.788000000     0.482000000
O     3.288000000    -1.745000000     1.167000000
O     3.873000000    -0.010000000     0.067000000
O     5.062000000    -5.594000000     2.069000000
H     5.684000000    -4.930000000     1.769000000
H     4.497000000    -5.131000000     2.687000000
O     7.141000000     1.664000000     2.207000000
H     7.402000000     2.485000000     2.624000000
H     7.889000000     1.425000000     1.660000000
O    -2.298000000     4.769000000     1.761000000
H    -1.965000000     5.431000000     2.368000000
H    -1.658000000     4.059000000     1.806000000
O     2.531000000    -4.434000000     1.147000000
H     2.949000000    -3.592000000     0.966000000
H     2.175000000    -4.711000000     0.303000000
O    -0.469000000    -4.567000000     2.760000000
H    -1.422000000    -4.506000000     2.826000000
H    -0.144000000    -3.951000000     3.416000000
O    -0.862000000     3.369000000     4.346000000
H    -0.015000000     3.284000000     4.784000000
H    -0.647000000     3.686000000     3.469000000
O    -4.687000000     4.983000000    -2.353000000
H    -5.390000000     5.421000000    -2.833000000
H    -4.888000000     4.051000000    -2.431000000
O    -0.491000000    -3.175000000     5.332000000
H    -0.813000000    -4.024000000     5.632000000
H    -1.030000000    -2.536000000     5.798000000
O    -3.126000000    -4.224000000     3.374000000
H    -3.378000000    -3.308000000     3.257000000
H    -3.844000000    -4.722000000     2.982000000
O    -3.251000000    -1.109000000     5.542000000
H    -3.371000000    -0.815000000     4.639000000
H    -3.970000000    -1.723000000     5.692000000
O     2.881000000     4.907000000     2.495000000
H     3.033000000     4.021000000     2.824000000
H     2.746000000     4.794000000     1.554000000
O    -5.987000000    -0.086000000    -0.664000000
H    -6.654000000     0.452000000    -1.091000000
H    -6.185000000    -0.017000000     0.270000000
O     0.235000000     0.615000000     3.343000000
H     0.061000000    -0.115000000     2.749000000
H    -0.571000000     1.133000000     3.327000000
O     8.632000000    -1.161000000     0.083000000
H     7.727000000    -1.269000000    -0.209000000
H     8.657000000    -1.578000000     0.944000000
O     4.263000000    -3.052000000     3.246000000
H     3.815000000    -2.656000000     2.498000000
H     4.547000000    -2.307000000     3.776000000
O     4.851000000     0.467000000     2.457000000
H     5.747000000     0.803000000     2.417000000
H     4.695000000     0.100000000     1.587000000
O     0.721000000     0.863000000    -4.865000000
H     1.513000000     0.968000000    -5.392000000
H     0.618000000     1.703000000    -4.417000000
O     4.283000000     4.162000000    -1.665000000
H     4.794000000     4.946000000    -1.462000000
H     4.581000000     3.511000000    -1.029000000
O    -2.193000000     1.835000000    -4.738000000
H    -1.854000000     2.675000000    -5.049000000
H    -1.442000000     1.243000000    -4.782000000
O    -4.227000000    -1.302000000     2.318000000
H    -3.452000000    -0.809000000     2.049000000
H    -4.953000000    -0.874000000     1.865000000
O     5.907000000    -2.036000000    -0.420000000
H     5.868000000    -2.088000000    -1.375000000
H     5.166000000    -1.479000000    -0.180000000
O    -4.141000000     0.137000000    -3.956000000
H    -3.770000000    -0.318000000    -3.200000000
H    -3.481000000     0.789000000    -4.191000000
O     1.798000000     4.817000000    -0.142000000
H     1.316000000     5.384000000    -0.743000000
H     2.556000000     4.522000000    -0.646000000
O    -5.404000000     2.364000000    -2.669000000
H    -5.002000000     1.500000000    -2.755000000
H    -6.158000000     2.222000000    -2.096000000
O     0.555000000    -1.116000000    -2.841000000
H     0.379000000    -0.659000000    -3.663000000
H     0.396000000    -0.460000000    -2.163000000
O     5.290000000    -1.788000000    -3.185000000
H     4.563000000    -2.337000000    -2.892000000
H     4.908000000    -0.916000000    -3.282000000
O     7.130000000    -4.104000000     0.914000000
H     7.389000000    -4.635000000     0.160000000
H     6.712000000    -3.332000000     0.531000000
O    -3.498000000    -1.986000000    -2.114000000
H    -3.770000000    -2.176000000    -1.216000000
H    -4.064000000    -2.535000000    -2.657000000
O     2.755000000     2.056000000     2.580000000
H     2.025000000     1.442000000     2.659000000
H     3.526000000     1.498000000     2.479000000
O    -5.297000000     4.527000000     3.085000000
H    -4.646000000     4.841000000     3.712000000
H    -4.858000000     4.579000000     2.236000000
O     1.334000000    -5.154000000    -2.017000000
H     0.971000000    -5.214000000    -1.134000000
H     0.575000000    -4.989000000    -2.577000000
O     4.452000000    -0.620000000     4.803000000
H     4.629000000    -0.405000000     3.888000000
H     3.519000000    -0.439000000     4.916000000
O     1.865000000    -0.013000000     5.194000000
H     1.194000000     0.151000000     4.531000000
H     1.376000000    -0.316000000     5.960000000
O     5.309000000     2.361000000    -0.154000000
H     5.977000000     2.315000000     0.530000000
H     4.706000000     1.647000000     0.051000000
O    -2.808000000     1.274000000     3.704000000
H    -3.737000000     1.459000000     3.569000000
H    -2.451000000     2.088000000     4.059000000
O     0.575000000     3.060000000    -3.500000000
H     1.335000000     3.636000000    -3.586000000
H    -0.026000000     3.540000000    -2.930000000
O    -6.488000000     0.427000000     1.868000000
H    -7.060000000    -0.022000000     2.491000000
H    -6.056000000     1.107000000     2.387000000
O     0.057000000     3.221000000     1.407000000
H     0.860000000     3.723000000     1.269000000
H     0.224000000     2.380000000     0.981000000
O     3.862000000    -4.581000000     5.594000000
H     3.237000000    -5.257000000     5.332000000
H     4.038000000    -4.094000000     4.789000000
O     2.128000000    -5.842000000     3.497000000
H     1.187000000    -5.897000000     3.658000000
H     2.199000000    -5.492000000     2.608000000
O     0.212000000    -5.892000000     0.468000000
H    -0.104000000    -5.420000000     1.238000000
H    -0.584000000    -6.148000000     0.001000000
O     3.381000000     4.176000000    -4.098000000
H     3.710000000     4.182000000    -3.200000000
H     4.005000000     3.632000000    -4.578000000
O    -3.764000000    -3.239000000     0.232000000
H    -3.742000000    -4.189000000     0.350000000
H    -3.931000000    -2.893000000     1.109000000
O     4.900000000     0.905000000    -2.363000000
H     5.194000000     1.700000000    -1.919000000
H     4.427000000     0.416000000    -1.690000000
O     2.627000000    -2.658000000    -2.402000000
H     2.024000000    -1.983000000    -2.714000000
H     2.059000000    -3.337000000    -2.038000000
O    -1.120000000    -3.573000000    -2.475000000
H    -1.995000000    -3.250000000    -2.262000000
H    -0.589000000    -2.782000000    -2.571000000
O    -1.709000000     5.420000000    -2.943000000
H    -1.706000000     5.159000000    -3.864000000
H    -2.603000000     5.247000000    -2.648000000
O    -6.410000000    -2.515000000    -1.812000000
H    -7.349000000    -2.643000000    -1.949000000
H    -6.342000000    -1.642000000    -1.424000000
