161
-3037.35683
C     1.244000000     0.865000000    -0.118000000
H     2.085000000     1.554000000    -0.104000000
C    -0.056000000     1.328000000    -0.129000000
H    -0.233000000     2.397000000    -0.040000000
C    -1.148000000     0.442000000    -0.018000000
C    -2.575000000     0.903000000     0.050000000
H    -3.216000000     0.303000000     0.698000000
H    -2.595000000     1.949000000     0.362000000
H    -3.142000000     0.928000000    -0.883000000
C    -0.886000000    -0.964000000    -0.052000000
H    -1.726000000    -1.653000000    -0.102000000
C     0.434000000    -1.428000000     0.022000000
H     0.544000000    -2.507000000     0.089000000
C     1.477000000    -0.566000000    -0.144000000
C     2.880000000    -1.060000000     0.009000000
O     3.074000000    -2.226000000     0.289000000
O     3.833000000    -0.266000000     0.069000000
O     7.435000000    -4.780000000    -0.937000000
H     6.610000000    -4.324000000    -0.768000000
H     7.275000000    -5.274000000    -1.742000000
O     6.545000000     2.582000000     1.225000000
H     6.987000000     2.108000000     1.930000000
H     7.256000000     2.929000000     0.687000000
O    -2.073000000     4.967000000     2.645000000
H    -1.614000000     5.504000000     3.291000000
H    -1.673000000     4.101000000     2.726000000
O     4.707000000    -4.279000000    -0.543000000
H     4.075000000    -3.574000000    -0.397000000
H     4.374000000    -4.743000000    -1.312000000
O    -2.079000000     5.423000000    -0.583000000
H    -2.523000000     5.718000000     0.212000000
H    -2.787000000     5.133000000    -1.158000000
O    -5.290000000    -3.537000000    -2.918000000
H    -5.286000000    -2.903000000    -3.635000000
H    -4.419000000    -3.934000000    -2.944000000
O     1.881000000    -4.399000000     1.131000000
H     1.592000000    -4.275000000     2.035000000
H     2.425000000    -3.633000000     0.947000000
O    -4.201000000     4.390000000    -1.992000000
H    -4.597000000     4.926000000    -2.679000000
H    -3.845000000     3.632000000    -2.455000000
O     0.582000000    -4.191000000     4.354000000
H    -0.243000000    -3.706000000     4.389000000
H     1.258000000    -3.513000000     4.364000000
O    -1.644000000    -2.506000000     4.036000000
H    -1.670000000    -1.914000000     3.285000000
H    -2.550000000    -2.546000000     4.342000000
O    -5.776000000     0.776000000    -1.731000000
H    -6.709000000     0.603000000    -1.598000000
H    -5.571000000     1.474000000    -1.109000000
O    -1.440000000     0.074000000     3.242000000
H    -0.903000000     0.241000000     2.467000000
H    -2.229000000     0.598000000     3.104000000
O    -0.403000000     5.925000000    -2.772000000
H    -0.883000000     5.513000000    -3.490000000
H    -0.875000000     5.657000000    -1.983000000
O     9.125000000    -0.039000000     0.831000000
H     8.173000000    -0.025000000     0.928000000
H     9.339000000     0.814000000     0.452000000
O     5.474000000    -2.031000000     2.316000000
H     5.976000000    -1.838000000     1.523000000
H     4.579000000    -2.164000000     2.006000000
O     4.301000000     1.435000000     2.486000000
H     5.058000000     1.820000000     2.044000000
H     3.878000000     0.901000000     1.814000000
O     4.545000000     4.770000000    -1.983000000
H     5.448000000     5.078000000    -1.902000000
H     4.539000000     3.925000000    -1.533000000
O     1.499000000    -6.778000000    -1.677000000
H     0.769000000    -7.074000000    -2.220000000
H     1.585000000    -5.846000000    -1.878000000
O    -3.571000000    -3.667000000     1.752000000
H    -4.059000000    -4.066000000     2.472000000
H    -4.007000000    -2.828000000     1.604000000
O     6.413000000    -0.791000000    -0.069000000
H     6.495000000    -1.021000000    -0.994000000
H     5.492000000    -0.554000000     0.039000000
O    -3.582000000    -0.620000000    -3.353000000
H    -3.365000000    -1.455000000    -2.938000000
H    -2.878000000    -0.478000000    -3.986000000
O     0.466000000     5.237000000     1.388000000
H    -0.488000000     5.289000000     1.445000000
H     0.641000000     5.034000000     0.469000000
O    -2.961000000     2.260000000    -3.631000000
H    -2.018000000     2.397000000    -3.720000000
H    -3.041000000     1.397000000    -3.224000000
O     1.792000000     5.374000000    -1.075000000
H     2.649000000     5.243000000    -1.480000000
H     1.195000000     5.499000000    -1.812000000
O     1.266000000     0.160000000    -3.436000000
H     1.995000000     0.176000000    -4.056000000
H     1.622000000     0.550000000    -2.637000000
O    -5.018000000     1.913000000    -5.518000000
H    -4.275000000     1.981000000    -4.918000000
H    -5.378000000     2.799000000    -5.554000000
O    -6.078000000     1.321000000     1.498000000
H    -6.724000000     1.822000000     1.996000000
H    -5.563000000     1.985000000     1.039000000
O     2.100000000     1.893000000     3.923000000
H     1.651000000     1.052000000     3.836000000
H     2.980000000     1.731000000     3.582000000
O    -4.831000000     4.885000000     3.604000000
H    -3.962000000     5.062000000     3.245000000
H    -5.207000000     4.234000000     3.012000000
O     4.071000000    -4.773000000    -3.511000000
H     3.232000000    -4.840000000    -3.056000000
H     4.189000000    -3.835000000    -3.659000000
O    -2.248000000     4.743000000    -4.449000000
H    -2.736000000     3.950000000    -4.225000000
H    -2.923000000     5.398000000    -4.625000000
O     5.170000000    -0.307000000     4.446000000
H     4.737000000     0.453000000     4.058000000
H     5.045000000    -1.007000000     3.805000000
O     1.179000000    -1.013000000     3.861000000
H     0.248000000    -1.016000000     3.638000000
H     1.203000000    -1.231000000     4.793000000
O    -5.225000000     3.869000000     0.417000000
H    -4.791000000     4.110000000    -0.402000000
H    -5.962000000     4.476000000     0.485000000
O     4.973000000     2.059000000    -0.842000000
H     5.510000000     2.149000000    -0.054000000
H     4.484000000     1.248000000    -0.707000000
O    -3.707000000     1.570000000     3.153000000
H    -4.550000000     1.566000000     2.700000000
H    -3.920000000     1.816000000     4.053000000
O     3.910000000     3.254000000    -4.150000000
H     4.213000000     3.701000000    -3.359000000
H     3.124000000     3.733000000    -4.410000000
O    -0.742000000    -6.212000000     2.564000000
H    -1.486000000    -6.485000000     3.100000000
H    -0.305000000    -5.538000000     3.085000000
O    -5.434000000    -1.643000000     1.703000000
H    -5.939000000    -1.987000000     2.440000000
H    -5.741000000    -0.741000000     1.604000000
O    -0.165000000     2.963000000     2.844000000
H     0.174000000     3.757000000     2.428000000
H     0.538000000     2.681000000     3.428000000
O     5.718000000    -4.574000000     3.335000000
H     5.629000000    -3.703000000     2.948000000
H     5.927000000    -4.408000000     4.254000000
O     4.375000000    -6.462000000     1.032000000
H     3.467000000    -6.695000000     1.223000000
H     4.318000000    -5.608000000     0.605000000
O     1.733000000    -4.085000000    -1.976000000
H     2.094000000    -3.546000000    -1.273000000
H     0.995000000    -3.576000000    -2.313000000
O    -1.708000000    -4.914000000     0.192000000
H    -1.209000000    -5.461000000     0.799000000
H    -2.203000000    -4.320000000     0.755000000
O     7.132000000     0.597000000    -2.731000000
H     8.054000000     0.789000000    -2.903000000
H     6.734000000     1.453000000    -2.574000000
O    -2.697000000    -3.686000000    -2.700000000
H    -2.547000000    -4.074000000    -1.837000000
H    -1.836000000    -3.369000000    -2.972000000
O     0.130000000    -2.260000000    -3.371000000
H    -0.192000000    -2.205000000    -4.271000000
H     0.500000000    -1.395000000    -3.195000000
O    -6.113000000    -0.544000000    -4.459000000
H    -6.263000000     0.385000000    -4.638000000
H    -5.266000000    -0.568000000    -4.013000000
