161
-3051.64723
C     1.089000000     0.811000000     0.523000000
H     2.038000000     1.198000000     0.886000000
C     1.235000000    -0.384000000    -0.229000000
H     2.206000000    -0.673000000    -0.624000000
C     0.092000000    -0.995000000    -0.736000000
C     0.272000000    -2.330000000    -1.449000000
H     1.086000000    -2.479000000    -2.162000000
H     0.404000000    -3.045000000    -0.634000000
H    -0.667000000    -2.583000000    -1.947000000
C    -1.208000000    -0.536000000    -0.354000000
H    -2.141000000    -1.026000000    -0.620000000
C    -1.254000000     0.639000000     0.425000000
H    -2.218000000     1.140000000     0.476000000
C    -0.110000000     1.343000000     0.859000000
C    -0.261000000     2.618000000     1.624000000
O    -1.224000000     2.809000000     2.295000000
O     0.663000000     3.492000000     1.660000000
O     0.068000000     0.408000000    -4.983000000
H    -0.198000000     0.854000000    -4.179000000
H     0.761000000     0.961000000    -5.345000000
O    -2.481000000     4.814000000     3.837000000
H    -2.343000000     5.442000000     3.129000000
H    -2.180000000     3.979000000     3.479000000
O    -3.080000000     3.061000000     5.848000000
H    -2.894000000     3.839000000     5.322000000
H    -2.297000000     2.944000000     6.387000000
O    -0.578000000     1.400000000    -2.366000000
H    -1.055000000     1.091000000    -1.596000000
H     0.336000000     1.431000000    -2.085000000
O     3.934000000    -0.790000000     4.827000000
H     3.503000000     0.061000000     4.915000000
H     4.103000000    -0.877000000     3.889000000
O     0.172000000    -4.770000000    -4.444000000
H    -0.403000000    -4.531000000    -3.717000000
H    -0.395000000    -5.247000000    -5.051000000
O     2.867000000    -4.860000000     3.063000000
H     2.963000000    -5.539000000     2.395000000
H     2.349000000    -4.177000000     2.637000000
O    -3.527000000    -4.971000000    -3.615000000
H    -4.347000000    -5.120000000    -3.145000000
H    -2.851000000    -5.020000000    -2.939000000
O     1.409000000    -2.795000000     2.032000000
H     0.872000000    -2.006000000     1.962000000
H     2.175000000    -2.612000000     1.489000000
O    -0.785000000    -7.789000000    -0.292000000
H     0.148000000    -7.920000000    -0.123000000
H    -1.051000000    -7.120000000     0.339000000
O    -1.990000000     1.000000000     4.026000000
H    -2.619000000     1.481000000     4.563000000
H    -1.854000000     1.557000000     3.259000000
O    -4.172000000     6.531000000     0.195000000
H    -4.202000000     7.150000000     0.924000000
H    -3.962000000     5.691000000     0.602000000
O     0.139000000     3.944000000     4.686000000
H     1.042000000     4.152000000     4.448000000
H    -0.246000000     3.592000000     3.883000000
O    -1.343000000    -3.734000000     1.676000000
H    -0.545000000    -3.346000000     1.317000000
H    -1.645000000    -3.102000000     2.328000000
O    -7.384000000    -1.365000000    -1.815000000
H    -6.435000000    -1.482000000    -1.772000000
H    -7.693000000    -2.106000000    -2.336000000
O    -2.372000000    -1.638000000     2.917000000
H    -2.887000000    -1.129000000     2.291000000
H    -2.164000000    -1.019000000     3.617000000
O     0.233000000     4.385000000    -3.056000000
H     0.699000000     3.595000000    -2.783000000
H    -0.672000000     4.237000000    -2.782000000
O     2.175000000     6.959000000     2.143000000
H     2.810000000     6.599000000     1.525000000
H     1.357000000     7.005000000     1.648000000
O     2.384000000    -3.890000000    -6.047000000
H     1.774000000    -3.872000000    -5.310000000
H     2.152000000    -4.683000000    -6.531000000
O    -5.042000000     1.440000000     3.833000000
H    -4.944000000     0.600000000     4.280000000
H    -5.662000000     1.264000000     3.125000000
O     3.438000000    -1.769000000    -2.914000000
H     3.434000000    -2.717000000    -3.043000000
H     3.430000000    -1.406000000    -3.800000000
O    -0.991000000     5.561000000     1.047000000
H    -1.421000000     5.206000000     0.269000000
H    -0.441000000     4.845000000     1.364000000
O     3.602000000    -4.471000000    -3.406000000
H     3.091000000    -5.259000000    -3.222000000
H     3.838000000    -4.549000000    -4.330000000
O     4.569000000     1.625000000    -2.937000000
H     4.382000000     0.941000000    -3.580000000
H     5.502000000     1.807000000    -3.044000000
O    -2.239000000     4.445000000    -1.632000000
H    -2.620000000     3.748000000    -1.098000000
H    -2.823000000     4.516000000    -2.387000000
O    -3.516000000     3.637000000     0.884000000
H    -4.244000000     3.084000000     1.168000000
H    -2.752000000     3.278000000     1.335000000
O     5.334000000    -1.095000000     2.457000000
H     5.579000000    -2.016000000     2.368000000
H     5.092000000    -0.825000000     1.570000000
O    -2.840000000    -2.442000000    -4.485000000
H    -3.023000000    -3.278000000    -4.057000000
H    -2.798000000    -2.655000000    -5.418000000
O    -3.071000000     0.481000000    -3.803000000
H    -3.066000000    -0.459000000    -3.983000000
H    -2.271000000     0.633000000    -3.301000000
O     6.963000000     1.688000000     0.054000000
H     7.039000000     2.115000000    -0.799000000
H     6.187000000     1.133000000    -0.024000000
O     2.881000000     4.185000000     0.177000000
H     3.498000000     3.783000000     0.788000000
H     2.032000000     4.116000000     0.614000000
O     3.557000000    -2.733000000    -0.007000000
H     3.813000000    -3.655000000     0.023000000
H     3.138000000    -2.628000000    -0.861000000
O    -1.563000000    -5.702000000    -1.894000000
H    -1.650000000    -5.164000000    -1.106000000
H    -1.125000000    -6.498000000    -1.593000000
O     0.583000000     0.881000000     4.826000000
H    -0.338000000     1.014000000     4.600000000
H     0.618000000    -0.008000000     5.178000000
O    -0.735000000     3.881000000     7.230000000
H    -0.553000000     4.705000000     7.682000000
H    -0.169000000     3.901000000     6.459000000
O    -4.540000000    -3.287000000     2.345000000
H    -4.839000000    -4.049000000     2.842000000
H    -3.719000000    -3.033000000     2.767000000
O     2.629000000     4.447000000     3.076000000
H     2.579000000     5.394000000     2.949000000
H     1.921000000     4.095000000     2.537000000
O    -1.028000000     8.105000000     2.020000000
H    -1.930000000     8.291000000     2.280000000
H    -1.054000000     7.206000000     1.692000000
O    -1.776000000    -6.271000000     1.957000000
H    -2.433000000    -6.177000000     2.646000000
H    -1.529000000    -5.373000000     1.736000000
O     4.778000000    -0.195000000    -0.327000000
H     4.479000000     0.541000000    -0.861000000
H     4.392000000    -0.965000000    -0.744000000
O    -4.093000000    -4.085000000    -0.579000000
H    -3.970000000    -3.733000000     0.303000000
H    -4.724000000    -4.796000000    -0.467000000
O    -4.247000000    -0.452000000     1.413000000
H    -4.714000000     0.365000000     1.585000000
H    -4.879000000    -0.995000000     0.942000000
O     1.363000000    -7.263000000    -3.979000000
H     0.961000000    -6.397000000    -4.045000000
H     0.759000000    -7.843000000    -4.443000000
O     2.892000000     1.580000000     3.585000000
H     2.004000000     1.274000000     3.766000000
H     2.849000000     2.528000000     3.709000000
O     2.240000000     2.529000000    -1.865000000
H     2.564000000     3.080000000    -1.153000000
H     3.005000000     2.030000000    -2.149000000
O     4.973000000     2.841000000     1.572000000
H     5.720000000     2.442000000     1.126000000
H     4.776000000     2.242000000     2.292000000
O    -4.779000000    -1.745000000    -1.681000000
H    -4.951000000    -1.815000000    -2.620000000
H    -4.425000000    -2.601000000    -1.437000000
O    -5.103000000     0.977000000    -1.981000000
H    -5.231000000     0.164000000    -1.491000000
H    -4.614000000     0.712000000    -2.760000000
