161
-3055.35270
C     1.148000000     0.455000000    -0.900000000
H     1.896000000     0.824000000    -1.598000000
C    -0.097000000     1.017000000    -0.779000000
H    -0.347000000     1.869000000    -1.405000000
C    -1.074000000     0.508000000     0.035000000
C    -2.436000000     1.290000000     0.128000000
H    -2.353000000     2.342000000     0.408000000
H    -2.921000000     1.091000000    -0.830000000
H    -3.087000000     0.920000000     0.923000000
C    -0.851000000    -0.603000000     0.847000000
H    -1.635000000    -0.966000000     1.507000000
C     0.425000000    -1.250000000     0.780000000
H     0.616000000    -2.136000000     1.380000000
C     1.401000000    -0.747000000    -0.078000000
C     2.754000000    -1.409000000    -0.141000000
O     3.124000000    -1.984000000     0.853000000
O     3.445000000    -1.223000000    -1.124000000
O    -3.098000000     2.405000000     4.914000000
H    -2.825000000     1.488000000     4.951000000
H    -3.659000000     2.519000000     5.681000000
O     6.908000000     1.965000000     0.871000000
H     6.443000000     1.337000000     0.318000000
H     7.222000000     2.634000000     0.262000000
O    -1.518000000     7.485000000    -0.014000000
H    -1.420000000     6.944000000     0.769000000
H    -1.928000000     8.290000000     0.300000000
O     0.725000000     1.921000000     3.270000000
H     1.191000000     1.555000000     2.518000000
H     1.236000000     1.639000000     4.029000000
O     2.023000000    -4.381000000     2.060000000
H     2.309000000    -3.562000000     1.656000000
H     1.149000000    -4.189000000     2.398000000
O     1.674000000    -5.332000000    -0.512000000
H     1.645000000    -5.175000000     0.432000000
H     0.856000000    -4.961000000    -0.842000000
O    -0.106000000    -3.845000000     3.365000000
H     0.150000000    -4.180000000     4.224000000
H    -0.788000000    -4.445000000     3.067000000
O     3.471000000    -3.709000000    -4.779000000
H     4.424000000    -3.797000000    -4.750000000
H     3.289000000    -3.368000000    -5.655000000
O     0.004000000    -1.598000000     4.692000000
H     0.544000000    -2.273000000     5.103000000
H    -0.327000000    -2.009000000     3.894000000
O    -3.886000000    -0.948000000     2.906000000
H    -4.323000000    -0.125000000     3.124000000
H    -3.200000000    -1.038000000     3.567000000
O     5.378000000     1.951000000    -3.236000000
H     4.912000000     2.764000000    -3.428000000
H     6.155000000     2.229000000    -2.750000000
O    -5.973000000    -2.853000000     3.370000000
H    -5.247000000    -2.263000000     3.168000000
H    -5.879000000    -3.572000000     2.744000000
O    -2.196000000    -5.441000000     3.175000000
H    -3.044000000    -5.868000000     3.053000000
H    -2.367000000    -4.744000000     3.808000000
O    -7.801000000    -0.036000000    -2.258000000
H    -8.688000000     0.313000000    -2.345000000
H    -7.232000000     0.724000000    -2.379000000
O    -3.854000000    -2.049000000    -0.091000000
H    -3.403000000    -1.659000000     0.659000000
H    -4.621000000    -1.492000000    -0.224000000
O     0.052000000     3.540000000     1.169000000
H    -0.377000000     2.790000000     0.757000000
H     0.317000000     3.221000000     2.031000000
O     4.399000000    -5.883000000    -1.340000000
H     4.686000000    -4.989000000    -1.524000000
H     3.503000000    -5.786000000    -1.020000000
O     3.594000000    -0.035000000    -3.610000000
H     3.450000000    -0.601000000    -2.852000000
H     4.344000000     0.507000000    -3.365000000
O    -0.963000000     1.590000000    -5.079000000
H    -0.822000000     0.793000000    -4.568000000
H    -1.454000000     2.167000000    -4.494000000
O     5.371000000    -0.831000000    -5.471000000
H     4.798000000    -0.336000000    -4.886000000
H     4.815000000    -1.056000000    -6.217000000
O     5.929000000    -5.159000000     3.538000000
H     6.128000000    -6.000000000     3.126000000
H     5.321000000    -4.734000000     2.934000000
O    -5.577000000     0.065000000    -0.182000000
H    -6.466000000    -0.180000000    -0.438000000
H    -5.325000000     0.742000000    -0.810000000
O     5.521000000    -1.910000000     1.782000000
H     5.993000000    -1.139000000     1.467000000
H     4.671000000    -1.867000000     1.343000000
O    -2.328000000    -1.815000000    -2.574000000
H    -2.924000000    -2.000000000    -1.848000000
H    -2.801000000    -1.185000000    -3.117000000
O     6.724000000    -5.260000000     0.176000000
H     5.929000000    -5.694000000    -0.133000000
H     7.429000000    -5.872000000    -0.036000000
O    -0.058000000    -0.634000000    -3.910000000
H     0.532000000    -1.368000000    -4.079000000
H    -0.628000000    -0.942000000    -3.205000000
O     4.972000000    -3.308000000    -1.475000000
H     4.368000000    -2.582000000    -1.320000000
H     5.442000000    -3.409000000    -0.647000000
O    -4.190000000    -0.109000000    -4.105000000
H    -4.505000000     0.590000000    -3.531000000
H    -4.396000000     0.196000000    -4.988000000
O     2.794000000     5.199000000     1.476000000
H     2.595000000     4.936000000     2.374000000
H     2.296000000     4.589000000     0.932000000
O    -3.872000000     5.136000000    -1.840000000
H    -3.434000000     5.396000000    -1.029000000
H    -3.542000000     5.748000000    -2.497000000
O    -6.065000000     2.413000000     2.076000000
H    -5.882000000     3.337000000     1.911000000
H    -5.528000000     1.944000000     1.437000000
O    -5.918000000     0.822000000     4.158000000
H    -6.749000000     1.057000000     4.570000000
H    -5.880000000     1.363000000     3.369000000
O     1.933000000    -2.686000000    -2.980000000
H     2.637000000    -3.005000000    -3.545000000
H     2.380000000    -2.369000000    -2.195000000
O    -0.252000000    -3.914000000    -2.010000000
H     0.571000000    -3.474000000    -2.223000000
H    -0.931000000    -3.319000000    -2.328000000
O     3.527000000    -2.470000000     3.872000000
H     4.163000000    -2.559000000     3.163000000
H     2.708000000    -2.802000000     3.504000000
O    -5.556000000     2.379000000    -2.081000000
H    -5.958000000     2.493000000    -2.942000000
H    -5.491000000     3.266000000    -1.728000000
O    -3.330000000     3.641000000     2.384000000
H    -3.109000000     2.932000000     1.779000000
H    -3.253000000     3.247000000     3.253000000
O     6.795000000    -0.832000000    -3.008000000
H     6.995000000    -1.767000000    -2.992000000
H     6.358000000    -0.695000000    -3.849000000
O    -0.525000000     4.845000000    -1.345000000
H     0.305000000     5.013000000    -1.791000000
H    -0.271000000     4.514000000    -0.483000000
O    -1.488000000     5.779000000     2.238000000
H    -1.001000000     5.061000000     1.834000000
H    -2.332000000     5.393000000     2.474000000
O     5.740000000     0.051000000    -0.624000000
H     6.210000000    -0.194000000    -1.421000000
H     4.867000000    -0.326000000    -0.735000000
O     1.692000000     5.194000000    -3.251000000
H     2.217000000     5.989000000    -3.342000000
H     2.243000000     4.500000000    -3.614000000
O    -2.084000000     3.083000000    -2.850000000
H    -1.582000000     3.838000000    -2.543000000
H    -2.992000000     3.297000000    -2.636000000
O     3.646000000     0.708000000     3.540000000
H     3.643000000    -0.129000000     3.076000000
H     3.225000000     0.518000000     4.379000000
O    -0.018000000     3.910000000    -6.473000000
H     0.664000000     3.666000000    -7.099000000
H    -0.236000000     3.092000000    -6.026000000
O     7.717000000    -2.288000000     3.564000000
H     6.903000000    -2.265000000     3.061000000
H     7.618000000    -3.042000000     4.146000000
O     1.800000000     0.995000000    -5.624000000
H     2.421000000     0.870000000    -4.907000000
H     0.940000000     0.909000000    -5.214000000
O    -2.473000000    -0.344000000     5.202000000
H    -2.850000000    -0.900000000     5.884000000
H    -1.555000000    -0.613000000     5.153000000
