161
-3044.08699
C    -0.117000000    -0.882000000    -1.111000000
H    -0.273000000    -1.332000000    -2.088000000
C    -1.047000000     0.010000000    -0.712000000
H    -1.922000000     0.172000000    -1.337000000
C    -0.890000000     0.712000000     0.487000000
C    -1.940000000     1.782000000     0.842000000
H    -1.721000000     2.780000000     0.457000000
H    -2.941000000     1.449000000     0.557000000
H    -2.056000000     1.866000000     1.924000000
C     0.293000000     0.487000000     1.234000000
H     0.474000000     1.093000000     2.118000000
C     1.253000000    -0.438000000     0.756000000
H     2.206000000    -0.590000000     1.256000000
C     1.066000000    -1.135000000    -0.403000000
C     2.208000000    -1.868000000    -1.126000000
O     3.324000000    -1.758000000    -0.624000000
O     2.079000000    -2.355000000    -2.238000000
O     1.785000000     4.148000000     6.265000000
H     1.901000000     3.901000000     5.347000000
H     0.869000000     3.945000000     6.453000000
O     0.144000000    -2.473000000    -4.664000000
H     1.048000000    -2.346000000    -4.375000000
H    -0.318000000    -2.772000000    -3.882000000
O     1.789000000     2.916000000    -0.247000000
H     1.691000000     1.975000000    -0.097000000
H     2.358000000     3.214000000     0.462000000
O    -1.050000000    -2.160000000     2.052000000
H    -0.712000000    -1.312000000     1.765000000
H    -0.323000000    -2.559000000     2.530000000
O    -1.480000000     4.978000000     3.654000000
H    -1.136000000     4.177000000     4.050000000
H    -1.383000000     5.643000000     4.336000000
O     0.543000000    -3.062000000     4.360000000
H     1.485000000    -3.087000000     4.194000000
H     0.245000000    -3.954000000     4.185000000
O    -6.775000000    -0.538000000    -0.115000000
H    -7.264000000    -1.159000000     0.425000000
H    -6.891000000    -0.856000000    -1.011000000
O    -0.623000000    -1.771000000    -7.217000000
H     0.007000000    -2.246000000    -7.760000000
H    -0.484000000    -2.113000000    -6.334000000
O     3.518000000     2.389000000     1.894000000
H     4.229000000     2.498000000     2.526000000
H     3.875000000     1.795000000     1.234000000
O     5.988000000    -5.445000000    -1.872000000
H     5.832000000    -6.318000000    -1.512000000
H     5.130000000    -5.158000000    -2.184000000
O    -1.637000000    -4.004000000    -3.284000000
H    -2.215000000    -3.371000000    -2.857000000
H    -1.643000000    -4.764000000    -2.703000000
O    -1.374000000     1.610000000    -3.606000000
H    -0.676000000     0.968000000    -3.730000000
H    -1.016000000     2.236000000    -2.976000000
O     3.847000000    -4.364000000    -3.054000000
H     3.305000000    -3.597000000    -2.867000000
H     3.647000000    -4.582000000    -3.964000000
O     3.165000000    -1.299000000    -4.496000000
H     3.230000000    -2.046000000    -5.090000000
H     2.909000000    -1.681000000    -3.657000000
O    -1.435000000    -4.525000000     0.737000000
H    -1.277000000    -3.727000000     1.241000000
H    -0.630000000    -4.655000000     0.235000000
O    -1.858000000     0.492000000    -6.194000000
H    -1.708000000     0.768000000    -5.289000000
H    -1.223000000    -0.209000000    -6.339000000
O     7.149000000    -4.643000000     0.647000000
H     6.658000000    -3.821000000     0.637000000
H     6.989000000    -5.028000000    -0.215000000
O     0.464000000     6.103000000     1.379000000
H     0.328000000     5.536000000     2.138000000
H    -0.357000000     6.049000000     0.890000000
O    -4.470000000    -0.673000000    -5.035000000
H    -4.445000000    -1.628000000    -4.966000000
H    -3.728000000    -0.455000000    -5.600000000
O    -0.831000000    -0.419000000     5.188000000
H    -1.519000000    -0.918000000     5.630000000
H    -0.228000000    -1.084000000     4.858000000
O     5.663000000    -2.565000000    -1.582000000
H     5.505000000    -3.405000000    -2.015000000
H     4.812000000    -2.319000000    -1.220000000
O    -3.631000000    -3.289000000    -5.068000000
H    -3.740000000    -4.104000000    -5.559000000
H    -2.828000000    -3.419000000    -4.564000000
O     1.224000000     1.290000000    -4.595000000
H     1.580000000     1.912000000    -3.960000000
H     1.954000000     0.703000000    -4.790000000
O    -4.070000000     4.828000000    -2.108000000
H    -4.086000000     5.060000000    -3.036000000
H    -4.737000000     5.387000000    -1.709000000
O     1.789000000     3.668000000     3.353000000
H     2.311000000     3.063000000     2.826000000
H     0.909000000     3.291000000     3.351000000
O     1.372000000    -5.914000000     1.208000000
H     1.841000000    -5.081000000     1.152000000
H     1.480000000    -6.188000000     2.119000000
O     5.116000000     0.445000000     0.462000000
H     5.932000000     0.491000000    -0.037000000
H     4.659000000    -0.316000000     0.103000000
O    -5.073000000     0.054000000    -2.421000000
H    -4.970000000    -0.015000000    -3.370000000
H    -4.189000000    -0.069000000    -2.075000000
O     1.599000000    -6.144000000    -1.363000000
H     2.204000000    -5.514000000    -1.754000000
H     1.528000000    -5.871000000    -0.448000000
O    -5.088000000     2.009000000     3.793000000
H    -4.536000000     1.228000000     3.760000000
H    -5.953000000     1.703000000     3.521000000
O     4.046000000     0.826000000    -2.238000000
H     4.697000000     0.783000000    -2.939000000
H     3.735000000    -0.075000000    -2.146000000
O    -0.710000000     2.338000000     4.310000000
H    -0.911000000     1.406000000     4.396000000
H    -0.573000000     2.637000000     5.209000000
O    -0.027000000    -5.012000000    -6.323000000
H     0.684000000    -4.600000000    -6.814000000
H     0.116000000    -4.737000000    -5.417000000
O     8.203000000    -2.844000000    -2.766000000
H     8.553000000    -1.961000000    -2.646000000
H     7.268000000    -2.759000000    -2.580000000
O     4.951000000    -1.042000000     3.791000000
H     5.309000000    -0.520000000     3.073000000
H     5.699000000    -1.200000000     4.367000000
O     1.387000000     0.619000000     6.982000000
H     0.732000000     0.084000000     6.533000000
H     2.171000000     0.070000000     7.002000000
O    -6.244000000     2.694000000    -1.760000000
H    -5.413000000     2.929000000    -1.347000000
H    -6.224000000     1.738000000    -1.812000000
O     2.562000000     2.905000000    -2.816000000
H     2.334000000     3.164000000    -1.922000000
H     3.265000000     2.265000000    -2.708000000
O     3.450000000    -3.127000000     3.760000000
H     4.150000000    -2.505000000     3.957000000
H     3.674000000    -3.907000000     4.267000000
O     2.966000000    -3.802000000     1.131000000
H     3.210000000    -3.079000000     0.552000000
H     3.311000000    -3.550000000     1.987000000
O    -3.787000000     3.075000000    -4.882000000
H    -3.068000000     2.665000000    -4.401000000
H    -3.653000000     4.015000000    -4.757000000
O    -3.445000000    -2.818000000    -1.550000000
H    -3.395000000    -3.379000000    -0.775000000
H    -4.301000000    -2.396000000    -1.485000000
O    -1.936000000     5.325000000    -0.515000000
H    -2.465000000     5.586000000     0.239000000
H    -2.571000000     5.192000000    -1.218000000
O    -3.214000000    -1.573000000     3.962000000
H    -2.378000000    -1.866000000     3.602000000
H    -3.765000000    -1.419000000     3.194000000
O    -4.919000000    -0.404000000     1.898000000
H    -5.695000000    -0.302000000     2.449000000
H    -5.116000000     0.103000000     1.111000000
O    -4.424000000     4.864000000     3.486000000
H    -3.477000000     4.739000000     3.545000000
H    -4.782000000     3.976000000     3.465000000
O     3.220000000    -1.101000000     6.057000000
H     3.813000000    -1.034000000     5.309000000
H     3.532000000    -1.865000000     6.542000000
O    -0.512000000     3.515000000    -1.858000000
H    -0.860000000     4.298000000    -1.432000000
H     0.114000000     3.157000000    -1.228000000
