161
-3075.80799
C     0.551000000    -0.286000000    -1.383000000
H     1.003000000    -0.528000000    -2.341000000
C     0.711000000    -1.055000000    -0.246000000
H     1.332000000    -1.947000000    -0.237000000
C     0.105000000    -0.758000000     0.948000000
C     0.391000000    -1.609000000     2.164000000
H    -0.286000000    -2.453000000     2.310000000
H     1.394000000    -2.028000000     2.065000000
H     0.290000000    -0.948000000     3.027000000
C    -0.596000000     0.426000000     1.052000000
H    -1.013000000     0.626000000     2.035000000
C    -0.794000000     1.271000000    -0.020000000
H    -1.513000000     2.086000000    -0.018000000
C    -0.236000000     0.924000000    -1.263000000
C    -0.371000000     1.840000000    -2.364000000
O    -0.817000000     2.971000000    -2.210000000
O    -0.158000000     1.476000000    -3.519000000
O    -4.002000000    -4.691000000     4.418000000
H    -4.838000000    -4.456000000     4.821000000
H    -3.350000000    -4.513000000     5.095000000
O     1.352000000     3.654000000     1.851000000
H     0.975000000     4.044000000     1.063000000
H     0.602000000     3.288000000     2.320000000
O    -4.475000000     2.798000000    -4.120000000
H    -4.135000000     3.580000000    -4.555000000
H    -4.341000000     2.965000000    -3.187000000
O     2.363000000    -4.003000000     5.816000000
H     2.449000000    -3.282000000     6.440000000
H     1.577000000    -4.470000000     6.099000000
O     2.670000000    -2.012000000    -6.532000000
H     2.878000000    -1.410000000    -7.247000000
H     2.200000000    -1.474000000    -5.896000000
O    -3.109000000    -6.264000000     2.376000000
H    -3.560000000    -5.771000000     3.061000000
H    -3.810000000    -6.571000000     1.801000000
O     3.339000000    -0.173000000     4.993000000
H     3.641000000    -0.818000000     5.632000000
H     3.509000000    -0.580000000     4.143000000
O     1.911000000     3.136000000    -6.685000000
H     1.536000000     3.678000000    -7.379000000
H     1.247000000     2.466000000    -6.519000000
O    -5.202000000     6.131000000    -1.479000000
H    -4.436000000     5.669000000    -1.817000000
H    -5.944000000     5.722000000    -1.924000000
O    -2.081000000     6.735000000    -3.570000000
H    -1.912000000     5.960000000    -4.105000000
H    -2.602000000     7.307000000    -4.134000000
O     2.029000000     5.182000000    -4.618000000
H     1.901000000     4.544000000    -5.320000000
H     2.919000000     5.020000000    -4.307000000
O    -1.206000000    -1.039000000    -3.840000000
H    -1.926000000    -0.787000000    -4.418000000
H    -0.700000000    -0.235000000    -3.725000000
O    -0.390000000    -5.246000000    -2.275000000
H    -0.724000000    -5.996000000    -2.767000000
H    -0.473000000    -4.507000000    -2.877000000
O    -0.349000000     7.463000000     0.391000000
H    -0.337000000     7.554000000     1.344000000
H    -0.426000000     6.521000000     0.241000000
O    -1.447000000    -0.610000000     4.960000000
H    -0.526000000    -0.469000000     5.179000000
H    -1.644000000    -1.482000000     5.303000000
O     3.272000000    -3.909000000    -1.298000000
H     3.407000000    -2.988000000    -1.521000000
H     3.223000000    -3.919000000    -0.342000000
O    -4.611000000    -1.802000000    -0.468000000
H    -4.014000000    -1.813000000     0.280000000
H    -5.309000000    -1.200000000    -0.209000000
O     2.147000000     0.568000000    -4.846000000
H     1.289000000     0.927000000    -4.621000000
H     2.616000000     0.529000000    -4.013000000
O     2.403000000    -4.975000000    -4.321000000
H     1.815000000    -4.385000000    -3.850000000
H     3.063000000    -5.224000000    -3.674000000
O    -3.411000000     0.449000000    -4.983000000
H    -4.205000000     0.108000000    -5.394000000
H    -3.684000000     1.274000000    -4.582000000
O    -1.359000000     4.284000000    -4.528000000
H    -1.094000000     3.885000000    -3.699000000
H    -1.372000000     3.556000000    -5.150000000
O     4.155000000    -1.399000000     2.491000000
H     4.670000000    -0.887000000     1.868000000
H     3.705000000    -2.050000000     1.953000000
O     0.354000000     4.654000000    -0.562000000
H    -0.067000000     4.048000000    -1.171000000
H     0.731000000     5.334000000    -1.122000000
O    -6.365000000     2.623000000    -0.077000000
H    -5.591000000     2.106000000     0.147000000
H    -6.558000000     2.384000000    -0.984000000
O    -3.514000000     3.479000000    -1.658000000
H    -2.583000000     3.391000000    -1.859000000
H    -3.662000000     2.871000000    -0.934000000
O    -0.985000000     1.806000000    -5.845000000
H    -0.626000000     1.752000000    -4.959000000
H    -1.699000000     1.168000000    -5.853000000
O     3.051000000    -3.977000000     1.476000000
H     2.238000000    -4.476000000     1.394000000
H     3.599000000    -4.506000000     2.056000000
O     2.615000000     1.299000000     0.943000000
H     1.797000000     0.807000000     1.010000000
H     2.369000000     2.202000000     1.146000000
O    -0.180000000     0.201000000     7.707000000
H     0.219000000     0.028000000     6.855000000
H    -0.318000000     1.148000000     7.720000000
O     0.016000000     1.457000000    -8.587000000
H    -0.506000000     2.198000000    -8.895000000
H    -0.062000000     1.488000000    -7.634000000
O     4.210000000     1.944000000     3.280000000
H     3.592000000     1.887000000     4.009000000
H     3.696000000     1.693000000     2.512000000
O    -1.535000000    -3.273000000     5.708000000
H    -0.935000000    -3.629000000     6.364000000
H    -1.546000000    -3.930000000     5.012000000
O    -3.866000000     0.881000000     5.825000000
H    -2.961000000     0.594000000     5.702000000
H    -4.198000000     0.327000000     6.532000000
O     0.791000000     6.544000000    -2.475000000
H     0.751000000     6.084000000    -3.313000000
H     0.102000000     7.206000000    -2.531000000
O     3.876000000     1.008000000    -2.744000000
H     4.348000000     1.832000000    -2.863000000
H     4.038000000     0.769000000    -1.831000000
O    -5.421000000     1.344000000     2.937000000
H    -4.508000000     1.063000000     2.871000000
H    -5.410000000     2.261000000     2.665000000
O    -3.285000000    -1.272000000     2.162000000
H    -3.735000000    -1.715000000     2.881000000
H    -2.487000000    -0.922000000     2.558000000
O    -2.846000000     2.979000000     2.268000000
H    -3.207000000     3.758000000     2.692000000
H    -2.022000000     2.816000000     2.728000000
O     5.064000000     0.580000000    -0.020000000
H     5.669000000     1.249000000     0.300000000
H     4.220000000     0.816000000     0.366000000
O    -0.141000000     6.037000000    -6.161000000
H    -0.482000000     5.199000000    -5.848000000
H     0.734000000     6.097000000    -5.779000000
O    -0.326000000    -3.609000000    -4.259000000
H    -0.070000000    -3.741000000    -5.171000000
H    -0.537000000    -2.677000000    -4.202000000
O    -3.812000000     1.220000000     0.362000000
H    -3.312000000     1.773000000     0.961000000
H    -3.297000000     0.417000000     0.291000000
O    -0.562000000     2.658000000     3.561000000
H    -0.250000000     1.983000000     4.164000000
H    -0.559000000     3.463000000     4.079000000
O    -0.439000000    -5.141000000     3.650000000
H     0.278000000    -4.721000000     3.175000000
H    -1.089000000    -5.341000000     2.976000000
O    -3.080000000    -3.008000000    -2.421000000
H    -2.543000000    -2.301000000    -2.778000000
H    -3.544000000    -2.607000000    -1.685000000
O     2.134000000    -6.582000000    -1.784000000
H     2.486000000    -5.816000000    -1.332000000
H     1.290000000    -6.289000000    -2.130000000
O     0.971000000     0.980000000     5.299000000
H     1.176000000     1.836000000     5.675000000
H     1.815000000     0.532000000     5.248000000
O     0.537000000    -5.550000000     0.267000000
H     0.185000000    -5.300000000    -0.587000000
H    -0.090000000    -6.189000000     0.607000000
