161
-3028.81435
C    -0.220000000    -0.876000000    -1.240000000
H    -0.433000000    -1.639000000    -1.984000000
C     0.436000000    -1.327000000    -0.063000000
H     0.836000000    -2.330000000     0.063000000
C     0.566000000    -0.399000000     0.964000000
C     1.144000000    -0.829000000     2.276000000
H     2.230000000    -0.920000000     2.204000000
H     0.929000000    -0.112000000     3.071000000
H     0.771000000    -1.812000000     2.571000000
C     0.068000000     0.944000000     0.912000000
H     0.059000000     1.603000000     1.776000000
C    -0.535000000     1.331000000    -0.259000000
H    -0.831000000     2.377000000    -0.237000000
C    -0.675000000     0.470000000    -1.317000000
C    -1.302000000     1.034000000    -2.553000000
O    -1.558000000     2.206000000    -2.654000000
O    -1.482000000     0.279000000    -3.522000000
O     2.280000000     3.209000000     0.987000000
H     1.755000000     3.893000000     1.401000000
H     2.834000000     2.872000000     1.691000000
O    -4.557000000     0.006000000     4.709000000
H    -4.694000000    -0.138000000     5.646000000
H    -3.605000000     0.010000000     4.605000000
O    -1.232000000    -3.431000000     3.938000000
H    -0.791000000    -2.697000000     4.368000000
H    -1.992000000    -3.610000000     4.492000000
O     4.205000000    -0.535000000     4.575000000
H     3.517000000    -1.200000000     4.610000000
H     4.372000000    -0.315000000     5.492000000
O     0.681000000     2.319000000    -5.464000000
H     0.905000000     1.504000000    -5.014000000
H    -0.266000000     2.402000000    -5.352000000
O    -2.726000000     6.798000000    -2.563000000
H    -3.054000000     5.910000000    -2.424000000
H    -2.221000000     6.743000000    -3.375000000
O     3.363000000     3.902000000    -1.493000000
H     2.865000000     3.722000000    -0.696000000
H     2.752000000     4.378000000    -2.055000000
O     0.341000000     5.178000000    -5.936000000
H     0.259000000     4.227000000    -5.866000000
H     1.228000000     5.365000000    -5.627000000
O    -4.158000000    -0.661000000    -4.372000000
H    -4.294000000    -0.608000000    -5.318000000
H    -3.344000000    -0.180000000    -4.221000000
O    -0.513000000    -4.973000000    -2.013000000
H    -1.202000000    -5.633000000    -1.942000000
H    -0.708000000    -4.510000000    -2.828000000
O    -2.183000000     3.256000000     2.404000000
H    -3.060000000     3.635000000     2.465000000
H    -1.719000000     3.824000000     1.788000000
O     2.512000000    -2.829000000     5.494000000
H     1.889000000    -2.604000000     6.185000000
H     3.166000000    -3.375000000     5.930000000
O    -0.483000000    -1.486000000     5.476000000
H     0.005000000    -1.885000000     6.197000000
H    -0.881000000    -0.704000000     5.861000000
O     3.580000000    -2.209000000    -1.421000000
H     3.661000000    -2.540000000    -0.526000000
H     2.932000000    -1.507000000    -1.359000000
O    -3.892000000     0.377000000     1.067000000
H    -3.663000000     1.305000000     1.124000000
H    -3.090000000    -0.084000000     1.310000000
O    -0.587000000    -0.395000000    -5.797000000
H    -1.157000000    -0.083000000    -5.094000000
H    -1.139000000    -0.375000000    -6.579000000
O     0.627000000    -2.755000000    -6.346000000
H     0.424000000    -1.821000000    -6.404000000
H     0.513000000    -2.967000000    -5.419000000
O    -5.505000000     3.166000000    -4.984000000
H    -6.309000000     2.679000000    -5.164000000
H    -5.534000000     3.908000000    -5.588000000
O    -1.157000000     4.574000000     4.657000000
H    -1.779000000     4.237000000     4.012000000
H    -1.179000000     5.523000000     4.537000000
O     0.893000000     3.911000000    -2.901000000
H     0.156000000     3.416000000    -2.543000000
H     1.057000000     3.512000000    -3.756000000
O     6.056000000    -0.629000000     2.690000000
H     6.550000000     0.182000000     2.815000000
H     5.320000000    -0.557000000     3.298000000
O    -1.467000000     5.103000000     0.566000000
H    -2.315000000     5.201000000     0.132000000
H    -0.825000000     5.283000000    -0.121000000
O     5.590000000    -0.537000000    -0.092000000
H     5.959000000    -0.813000000     0.747000000
H     4.669000000    -0.361000000     0.098000000
O     3.324000000    -4.764000000     3.664000000
H     3.036000000    -3.903000000     3.968000000
H     2.653000000    -5.367000000     3.982000000
O    -4.855000000    -2.991000000    -0.163000000
H    -4.497000000    -3.124000000    -1.041000000
H    -4.101000000    -3.088000000     0.419000000
O    -3.344000000     4.061000000    -1.929000000
H    -2.560000000     3.587000000    -2.208000000
H    -3.745000000     3.493000000    -1.271000000
O    -2.584000000     2.741000000    -5.090000000
H    -3.471000000     3.093000000    -5.168000000
H    -2.423000000     2.706000000    -4.147000000
O     3.407000000    -3.610000000     0.876000000
H     2.813000000    -4.296000000     0.572000000
H     3.510000000    -3.779000000     1.812000000
O     3.822000000     1.980000000     3.517000000
H     4.152000000     1.162000000     3.891000000
H     3.492000000     2.471000000     4.270000000
O    -2.137000000     2.000000000    -7.565000000
H    -1.200000000     1.804000000    -7.592000000
H    -2.345000000     2.046000000    -6.632000000
O     0.505000000     6.165000000    -1.051000000
H     0.546000000     5.426000000    -1.658000000
H     0.519000000     6.938000000    -1.615000000
O     3.071000000     1.141000000    -0.912000000
H     2.362000000     1.453000000    -0.350000000
H     3.336000000     1.912000000    -1.414000000
O    -2.911000000    -3.251000000     1.775000000
H    -2.826000000    -4.204000000     1.752000000
H    -2.125000000    -2.951000000     2.232000000
O    -1.849000000     0.666000000     4.216000000
H    -1.155000000     0.141000000     3.818000000
H    -1.893000000     1.454000000     3.674000000
O    -1.601000000    -3.235000000    -4.174000000
H    -1.980000000    -3.258000000    -5.052000000
H    -1.483000000    -2.303000000    -3.989000000
O    -5.775000000     5.106000000    -2.884000000
H    -4.911000000     4.876000000    -2.543000000
H    -5.892000000     4.536000000    -3.644000000
O    -4.458000000    -0.436000000    -7.264000000
H    -4.848000000     0.373000000    -7.598000000
H    -3.863000000    -0.719000000    -7.959000000
O     0.779000000     5.002000000     2.419000000
H     0.354000000     4.648000000     3.201000000
H     0.057000000     5.328000000     1.882000000
O    -0.801000000     0.657000000     7.194000000
H     0.073000000     0.912000000     7.489000000
H    -1.185000000     1.465000000     6.855000000
O     1.899000000     0.491000000    -3.729000000
H     2.032000000     0.855000000    -2.854000000
H     1.276000000    -0.225000000    -3.598000000
O     0.125000000    -5.278000000     2.511000000
H    -0.705000000    -5.707000000     2.303000000
H    -0.127000000    -4.485000000     2.983000000
O     1.109000000    -1.834000000     7.747000000
H     1.275000000    -2.092000000     8.653000000
H     1.125000000    -0.877000000     7.763000000
O    -6.238000000    -1.082000000    -2.509000000
H    -5.861000000    -0.787000000    -1.680000000
H    -5.523000000    -0.997000000    -3.141000000
O    -4.039000000    -4.075000000    -2.529000000
H    -3.473000000    -4.017000000    -3.298000000
H    -4.863000000    -4.430000000    -2.864000000
O     3.261000000    -7.178000000    -0.999000000
H     3.884000000    -6.951000000    -1.689000000
H     2.806000000    -6.357000000    -0.808000000
O     1.232000000    -5.141000000     0.237000000
H     0.507000000    -5.141000000    -0.389000000
H     0.819000000    -5.322000000     1.081000000
O    -2.834000000    -3.044000000    -6.463000000
H    -3.011000000    -3.736000000    -7.101000000
H    -2.832000000    -2.238000000    -6.979000000
O     3.686000000    -4.294000000    -4.244000000
H     3.547000000    -3.668000000    -3.533000000
H     4.369000000    -4.880000000    -3.917000000
