161
-3032.91126
C    -0.260000000     0.557000000    -1.318000000
H    -0.343000000     0.910000000    -2.343000000
C     0.120000000    -0.749000000    -1.152000000
H     0.347000000    -1.413000000    -1.982000000
C     0.330000000    -1.159000000     0.122000000
C     0.807000000    -2.523000000     0.540000000
H     1.355000000    -2.929000000    -0.313000000
H     1.507000000    -2.461000000     1.376000000
H     0.040000000    -3.268000000     0.761000000
C     0.096000000    -0.307000000     1.228000000
H     0.365000000    -0.569000000     2.248000000
C    -0.377000000     0.983000000     1.022000000
H    -0.740000000     1.549000000     1.877000000
C    -0.453000000     1.492000000    -0.283000000
C    -0.833000000     2.926000000    -0.568000000
O    -1.238000000     3.537000000     0.413000000
O    -0.725000000     3.430000000    -1.632000000
O    -1.406000000    -3.443000000     4.332000000
H    -1.155000000    -4.339000000     4.106000000
H    -2.302000000    -3.521000000     4.659000000
O     3.062000000    -7.593000000     0.695000000
H     2.761000000    -6.847000000     1.214000000
H     2.301000000    -8.171000000     0.641000000
O    -1.558000000    -3.204000000    -5.151000000
H    -1.073000000    -3.954000000    -4.806000000
H    -0.940000000    -2.767000000    -5.736000000
O     2.413000000    -5.375000000    -1.562000000
H     2.945000000    -5.995000000    -1.063000000
H     2.998000000    -4.635000000    -1.725000000
O     1.034000000     3.756000000    -6.362000000
H     0.603000000     3.409000000    -5.580000000
H     0.640000000     3.272000000    -7.087000000
O     5.818000000    -4.964000000     2.445000000
H     4.939000000    -5.027000000     2.072000000
H     5.675000000    -4.910000000     3.390000000
O     0.863000000     2.796000000    -3.738000000
H     1.799000000     2.926000000    -3.588000000
H     0.459000000     2.959000000    -2.886000000
O     3.094000000    -4.623000000     1.801000000
H     2.543000000    -4.078000000     2.363000000
H     2.931000000    -4.298000000     0.916000000
O    -1.831000000    -4.008000000    -1.972000000
H    -2.434000000    -4.016000000    -1.229000000
H    -2.266000000    -3.465000000    -2.628000000
O     3.038000000     0.051000000    -3.106000000
H     3.795000000    -0.040000000    -2.528000000
H     2.305000000     0.222000000    -2.515000000
O     3.367000000     0.908000000    -5.727000000
H     3.500000000     0.742000000    -4.794000000
H     2.901000000     0.135000000    -6.044000000
O    -3.261000000     0.555000000    -1.990000000
H    -2.824000000     0.286000000    -1.182000000
H    -4.067000000     0.040000000    -2.010000000
O    -3.558000000    -3.490000000    -0.228000000
H    -4.395000000    -3.258000000    -0.629000000
H    -3.140000000    -2.649000000    -0.040000000
O     3.090000000     3.239000000    -2.208000000
H     3.018000000     2.936000000    -1.302000000
H     2.643000000     4.085000000    -2.214000000
O     0.298000000     1.450000000     5.677000000
H    -0.354000000     1.929000000     6.188000000
H    -0.194000000     0.734000000     5.274000000
O    -4.524000000     2.854000000    -1.478000000
H    -3.964000000     2.078000000    -1.492000000
H    -4.503000000     3.180000000    -2.378000000
O    -4.944000000     2.025000000     2.848000000
H    -5.488000000     1.909000000     2.069000000
H    -4.322000000     2.711000000     2.607000000
O    -1.987000000    -7.987000000    -0.284000000
H    -2.795000000    -7.534000000    -0.041000000
H    -1.295000000    -7.347000000    -0.121000000
O     2.876000000     1.570000000    -0.176000000
H     2.009000000     1.552000000     0.228000000
H     3.445000000     1.131000000     0.456000000
O     1.263000000     5.592000000    -2.088000000
H     0.856000000     5.931000000    -1.291000000
H     0.670000000     4.901000000    -2.385000000
O    -1.442000000    -0.729000000     4.474000000
H    -2.270000000    -1.015000000     4.087000000
H    -0.872000000    -1.495000000     4.413000000
O    -3.137000000     8.111000000    -0.646000000
H    -2.418000000     7.483000000    -0.719000000
H    -3.226000000     8.265000000     0.294000000
O     2.567000000     5.108000000     2.950000000
H     1.890000000     5.285000000     2.297000000
H     2.360000000     5.699000000     3.675000000
O     2.660000000    -2.915000000    -4.606000000
H     2.931000000    -2.626000000    -3.734000000
H     3.047000000    -3.786000000    -4.700000000
O     0.320000000     0.600000000    -5.473000000
H     0.607000000     1.378000000    -4.995000000
H    -0.619000000     0.543000000    -5.296000000
O    -2.445000000     1.829000000     5.544000000
H    -3.302000000     2.256000000     5.557000000
H    -2.608000000     0.979000000     5.134000000
O     0.802000000    -1.820000000     5.817000000
H     1.101000000    -2.024000000     6.703000000
H     1.366000000    -1.101000000     5.533000000
O    -5.399000000     5.351000000    -0.638000000
H    -5.048000000     4.498000000    -0.896000000
H    -6.071000000     5.146000000     0.011000000
O    -3.893000000    -1.263000000     3.090000000
H    -4.010000000    -1.739000000     3.912000000
H    -4.779000000    -1.014000000     2.828000000
O     0.836000000    -7.982000000     2.714000000
H     1.258000000    -8.331000000     3.499000000
H     0.347000000    -7.219000000     3.023000000
O     2.998000000    -0.660000000     3.447000000
H     3.850000000    -1.035000000     3.223000000
H     3.012000000     0.214000000     3.056000000
O    -2.066000000     3.758000000    -4.074000000
H    -2.281000000     2.853000000    -4.302000000
H    -1.513000000     3.684000000    -3.296000000
O    -2.980000000     4.018000000     2.324000000
H    -2.463000000     3.597000000     1.638000000
H    -2.334000000     4.457000000     2.876000000
O    -2.722000000     1.136000000    -4.622000000
H    -3.392000000     0.695000000    -5.145000000
H    -2.870000000     0.822000000    -3.730000000
O     4.414000000    -2.305000000     0.850000000
H     4.236000000    -2.896000000     1.582000000
H     5.254000000    -1.901000000     1.067000000
O    -2.764000000    -1.132000000     0.428000000
H    -1.882000000    -0.974000000     0.764000000
H    -3.337000000    -0.991000000     1.182000000
O    -0.024000000    -5.825000000    -0.337000000
H     0.888000000    -5.775000000    -0.622000000
H    -0.503000000    -5.291000000    -0.970000000
O    -3.445000000    -6.147000000     1.145000000
H    -4.291000000    -6.331000000     1.553000000
H    -3.561000000    -5.293000000     0.729000000
O    -1.665000000     6.590000000    -3.165000000
H    -2.047000000     5.813000000    -3.573000000
H    -1.406000000     6.298000000    -2.291000000
O     4.089000000    -3.396000000    -1.658000000
H     4.311000000    -2.927000000    -0.854000000
H     4.931000000    -3.543000000    -2.090000000
O    -0.985000000    -5.700000000     2.506000000
H    -1.822000000    -5.662000000     2.044000000
H    -0.340000000    -5.418000000     1.857000000
O     1.854000000    -3.265000000     3.880000000
H     2.305000000    -2.434000000     3.732000000
H     1.127000000    -3.043000000     4.462000000
O     0.039000000     5.297000000     2.009000000
H    -0.541000000     4.697000000     1.540000000
H    -0.179000000     5.168000000     2.932000000
O     5.026000000    -0.460000000    -1.310000000
H     5.693000000    -0.001000000    -0.798000000
H     4.756000000    -1.189000000    -0.752000000
O    -0.704000000     4.326000000     4.317000000
H    -0.825000000     4.855000000     5.106000000
H     0.019000000     3.737000000     4.533000000
O     1.578000000    -6.844000000    -3.902000000
H     1.796000000    -6.413000000    -3.075000000
H     1.286000000    -7.719000000    -3.647000000
O     1.042000000    -1.758000000    -6.531000000
H     0.789000000    -0.925000000    -6.134000000
H     1.600000000    -2.177000000    -5.876000000
O    -1.105000000     6.083000000    -0.449000000
H    -1.426000000     5.183000000    -0.495000000
H    -0.725000000     6.157000000     0.427000000
