161
-3033.47562
C    -0.200000000     0.710000000    -1.205000000
H    -0.264000000     1.171000000    -2.187000000
C    -0.336000000    -0.663000000    -0.965000000
H    -0.438000000    -1.273000000    -1.859000000
C    -0.056000000    -1.259000000     0.214000000
C     0.070000000    -2.741000000     0.270000000
H     0.336000000    -3.195000000     1.227000000
H    -0.832000000    -3.287000000    -0.014000000
H     0.841000000    -2.899000000    -0.487000000
C     0.192000000    -0.365000000     1.266000000
H     0.516000000    -0.772000000     2.221000000
C     0.153000000     1.030000000     1.170000000
H     0.432000000     1.654000000     2.016000000
C    -0.003000000     1.562000000    -0.131000000
C    -0.066000000     3.037000000    -0.423000000
O    -0.469000000     3.756000000     0.432000000
O     0.127000000     3.536000000    -1.537000000
O     3.662000000    -6.700000000    -0.430000000
H     3.948000000    -5.899000000    -0.870000000
H     3.029000000    -7.091000000    -1.031000000
O    -3.022000000    -4.713000000    -2.425000000
H    -2.153000000    -4.613000000    -2.036000000
H    -3.624000000    -4.401000000    -1.750000000
O     3.254000000     3.483000000    -4.954000000
H     3.993000000     3.688000000    -4.382000000
H     3.447000000     2.608000000    -5.291000000
O     3.316000000    -4.835000000     1.726000000
H     4.199000000    -4.466000000     1.692000000
H     3.284000000    -5.448000000     0.992000000
O     0.756000000    -3.424000000    -3.555000000
H     1.467000000    -2.795000000    -3.681000000
H     0.529000000    -3.708000000    -4.440000000
O     4.163000000     6.670000000    -3.105000000
H     4.045000000     6.008000000    -2.424000000
H     4.702000000     6.238000000    -3.768000000
O    -4.115000000    -3.955000000    -0.187000000
H    -4.150000000    -4.718000000     0.390000000
H    -4.735000000    -3.335000000     0.197000000
O    -1.994000000    -1.378000000    -3.988000000
H    -2.104000000    -0.432000000    -4.084000000
H    -1.871000000    -1.697000000    -4.883000000
O     4.247000000     4.820000000    -0.983000000
H     4.137000000     4.439000000    -0.112000000
H     5.138000000     4.580000000    -1.238000000
O     1.663000000    -4.756000000     5.734000000
H     1.878000000    -4.136000000     5.037000000
H     0.709000000    -4.830000000     5.702000000
O    -3.040000000     2.618000000     1.195000000
H    -2.273000000     3.142000000     0.965000000
H    -3.757000000     3.251000000     1.246000000
O     3.018000000    -1.112000000     5.095000000
H     2.994000000    -1.296000000     6.034000000
H     2.960000000    -1.973000000     4.681000000
O    -4.517000000     5.334000000    -2.649000000
H    -4.021000000     5.273000000    -3.465000000
H    -3.864000000     5.211000000    -1.961000000
O     3.237000000    -0.382000000     0.341000000
H     2.488000000     0.106000000     0.683000000
H     3.518000000    -0.931000000     1.073000000
O    -1.035000000     6.343000000    -1.737000000
H    -1.506000000     6.584000000    -0.939000000
H    -0.901000000     5.398000000    -1.660000000
O    -0.274000000    -5.513000000    -1.908000000
H     0.311000000    -6.220000000    -1.635000000
H     0.312000000    -4.830000000    -2.235000000
O    -2.753000000     6.866000000     0.631000000
H    -3.175000000     6.694000000     1.473000000
H    -3.446000000     7.245000000     0.089000000
O     3.904000000     2.422000000     3.313000000
H     3.466000000     1.855000000     3.947000000
H     3.191000000     2.846000000     2.836000000
O     2.142000000     3.946000000     1.922000000
H     1.397000000     4.099000000     1.339000000
H     2.316000000     4.800000000     2.317000000
O     3.912000000     0.778000000    -4.526000000
H     4.595000000     1.129000000    -3.955000000
H     3.208000000     0.525000000    -3.930000000
O    -3.871000000     2.168000000    -3.324000000
H    -3.944000000     1.222000000    -3.194000000
H    -4.109000000     2.546000000    -2.478000000
O     0.048000000     7.979000000     3.712000000
H     0.330000000     7.534000000     2.913000000
H     0.089000000     7.304000000     4.389000000
O    -5.888000000    -2.031000000     0.620000000
H    -6.290000000    -2.022000000    -0.248000000
H    -5.172000000    -1.398000000     0.559000000
O    -3.963000000     0.022000000     0.892000000
H    -3.623000000    -0.486000000     0.156000000
H    -3.468000000     0.841000000     0.867000000
O    -1.265000000    -1.627000000     4.679000000
H    -1.186000000    -1.371000000     5.598000000
H    -1.659000000    -0.866000000     4.252000000
O     4.523000000    -0.698000000     2.695000000
H     5.468000000    -0.847000000     2.658000000
H     4.306000000    -0.770000000     3.625000000
O     0.296000000     3.496000000    -4.326000000
H     1.250000000     3.417000000    -4.350000000
H     0.092000000     3.639000000    -3.402000000
O    -5.823000000    -0.846000000    -2.435000000
H    -4.925000000    -0.881000000    -2.106000000
H    -6.150000000    -1.740000000    -2.331000000
O    -5.158000000     4.227000000     1.109000000
H    -5.263000000     3.965000000     2.024000000
H    -5.935000000     4.752000000     0.919000000
O    -3.255000000    -1.495000000    -1.430000000
H    -2.633000000    -1.438000000    -2.155000000
H    -3.266000000    -2.423000000    -1.196000000
O    -1.418000000     1.536000000    -4.876000000
H    -0.836000000     2.295000000    -4.892000000
H    -1.983000000     1.684000000    -4.118000000
O    -2.310000000     0.876000000     3.585000000
H    -1.887000000     1.087000000     2.753000000
H    -3.138000000     1.356000000     3.562000000
O     0.368000000     7.192000000     1.138000000
H     1.025000000     6.709000000     0.635000000
H    -0.398000000     6.619000000     1.143000000
O     2.312000000    -0.444000000    -2.422000000
H     1.729000000    -0.105000000    -1.743000000
H     2.983000000    -0.927000000    -1.941000000
O    -4.046000000    -5.608000000     2.180000000
H    -3.337000000    -6.207000000     1.943000000
H    -3.985000000    -5.529000000     3.132000000
O     2.089000000    -3.308000000     3.652000000
H     1.183000000    -3.148000000     3.390000000
H     2.450000000    -3.849000000     2.949000000
O     0.388000000    -5.531000000     2.289000000
H     0.368000000    -5.533000000     3.246000000
H     1.318000000    -5.485000000     2.069000000
O    -1.053000000    -4.268000000     5.564000000
H    -1.252000000    -3.390000000     5.240000000
H    -1.909000000    -4.649000000     5.764000000
O    -0.463000000     2.896000000     4.257000000
H     0.350000000     2.399000000     4.170000000
H    -1.145000000     2.229000000     4.334000000
O     0.072000000     8.614000000    -2.668000000
H    -0.278000000     7.854000000    -2.203000000
H     0.884000000     8.824000000    -2.207000000
O     1.716000000     5.497000000    -0.348000000
H     2.497000000     5.307000000    -0.868000000
H     1.057000000     4.885000000    -0.676000000
O     5.628000000     0.714000000     0.031000000
H     6.055000000     1.290000000     0.665000000
H     4.809000000     0.457000000     0.453000000
O    -1.215000000     4.865000000     2.633000000
H    -0.974000000     4.504000000     1.779000000
H    -0.789000000     4.286000000     3.266000000
O     1.254000000    -0.326000000    -4.952000000
H     0.336000000    -0.491000000    -5.165000000
H     1.309000000    -0.459000000    -4.006000000
O     1.752000000     1.339000000     4.527000000
H     1.895000000     1.911000000     5.281000000
H     2.021000000     0.472000000     4.829000000
O    -2.427000000     5.042000000    -4.424000000
H    -1.525000000     5.149000000    -4.123000000
H    -2.407000000     4.253000000    -4.965000000
O    -1.571000000    -6.962000000     0.749000000
H    -1.154000000    -6.274000000     1.268000000
H    -1.359000000    -6.740000000    -0.158000000
O    -3.562000000     6.082000000     3.397000000
H    -2.648000000     5.799000000     3.405000000
H    -4.047000000     5.336000000     3.748000000
