161
-3034.15420
C    -0.483000000     0.768000000    -1.231000000
H    -0.837000000     1.215000000    -2.157000000
C     0.037000000    -0.563000000    -1.220000000
H     0.063000000    -1.171000000    -2.120000000
C     0.510000000    -1.105000000    -0.010000000
C     1.114000000    -2.504000000     0.098000000
H     2.176000000    -2.535000000    -0.152000000
H     0.900000000    -2.944000000     1.074000000
H     0.759000000    -3.324000000    -0.529000000
C     0.325000000    -0.403000000     1.133000000
H     0.523000000    -1.001000000     2.019000000
C    -0.167000000     0.872000000     1.180000000
H    -0.496000000     1.285000000     2.131000000
C    -0.612000000     1.495000000    -0.030000000
C    -1.125000000     2.914000000    -0.061000000
O    -1.317000000     3.560000000     0.975000000
O    -1.369000000     3.445000000    -1.105000000
O     1.734000000    -3.441000000    -3.031000000
H     2.267000000    -2.647000000    -2.994000000
H     2.083000000    -3.929000000    -3.777000000
O     3.951000000    -5.266000000    -2.927000000
H     3.344000000    -5.713000000    -3.517000000
H     3.856000000    -5.726000000    -2.093000000
O     1.782000000     3.118000000    -4.826000000
H     1.595000000     3.168000000    -3.889000000
H     0.986000000     3.445000000    -5.247000000
O    -0.907000000    -4.324000000    -2.391000000
H    -0.989000000    -4.939000000    -1.662000000
H    -0.076000000    -3.876000000    -2.233000000
O     2.259000000     0.661000000    -3.349000000
H     1.447000000     0.506000000    -2.866000000
H     1.995000000     1.208000000    -4.090000000
O     3.490000000    -6.935000000     0.481000000
H     4.329000000    -7.249000000     0.818000000
H     3.225000000    -6.251000000     1.097000000
O     0.073000000     6.053000000    -4.709000000
H    -0.209000000     5.742000000    -3.848000000
H    -0.134000000     5.332000000    -5.303000000
O     4.686000000     0.080000000    -4.472000000
H     3.798000000     0.199000000    -4.134000000
H     4.562000000    -0.267000000    -5.355000000
O    -4.219000000    -2.227000000    -2.262000000
H    -3.831000000    -2.165000000    -1.389000000
H    -4.569000000    -3.117000000    -2.306000000
O     4.126000000     0.360000000     0.533000000
H     4.338000000     1.192000000     0.110000000
H     3.389000000     0.565000000     1.107000000
O    -4.193000000     3.100000000    -2.119000000
H    -4.690000000     2.564000000    -1.501000000
H    -3.390000000     3.323000000    -1.651000000
O    -5.540000000     2.625000000     2.972000000
H    -4.656000000     2.439000000     3.289000000
H    -5.780000000     1.850000000     2.464000000
O     6.464000000    -0.726000000    -0.558000000
H     7.113000000    -0.382000000     0.056000000
H     5.622000000    -0.450000000    -0.196000000
O    -1.666000000    -5.772000000     0.185000000
H    -0.822000000    -6.153000000     0.427000000
H    -2.028000000    -5.446000000     1.009000000
O     1.174000000     3.552000000    -2.304000000
H     0.286000000     3.486000000    -1.954000000
H     1.460000000     4.434000000    -2.067000000
O     2.761000000    -0.239000000     5.543000000
H     3.506000000    -0.615000000     6.013000000
H     3.102000000     0.571000000     5.165000000
O    -1.767000000    -0.048000000     4.369000000
H    -2.461000000    -0.113000000     5.025000000
H    -1.035000000     0.355000000     4.835000000
O    -2.366000000     2.163000000    -6.585000000
H    -3.150000000     2.095000000    -6.039000000
H    -2.698000000     2.153000000    -7.482000000
O    -0.589000000     0.329000000    -4.578000000
H    -0.930000000     0.716000000    -5.385000000
H    -1.359000000    -0.045000000    -4.149000000
O    -1.364000000     3.425000000     5.441000000
H    -0.782000000     2.836000000     4.961000000
H    -2.211000000     3.332000000     5.004000000
O     0.178000000     8.393000000    -1.275000000
H     1.085000000     8.602000000    -1.502000000
H     0.239000000     7.585000000    -0.766000000
O     0.303000000     0.975000000     5.531000000
H     1.160000000     0.565000000     5.419000000
H     0.381000000     1.479000000     6.341000000
O     0.079000000     6.259000000     4.261000000
H     0.303000000     6.676000000     5.092000000
H    -0.452000000     5.502000000     4.508000000
O    -2.423000000     5.878000000     1.799000000
H    -2.194000000     4.966000000     1.621000000
H    -2.439000000     6.293000000     0.936000000
O     6.561000000    -3.766000000     0.533000000
H     6.656000000    -3.007000000    -0.042000000
H     6.463000000    -3.393000000     1.409000000
O    -4.633000000     0.990000000    -0.204000000
H    -5.147000000     0.507000000    -0.852000000
H    -4.125000000     0.317000000     0.249000000
O     2.472000000     1.530000000     2.678000000
H     1.763000000     0.972000000     2.998000000
H     2.030000000     2.307000000     2.336000000
O     3.296000000    -1.814000000     2.330000000
H     4.042000000    -1.608000000     2.893000000
H     3.512000000    -1.413000000     1.489000000
O    -4.437000000     2.008000000    -4.711000000
H    -4.082000000     1.191000000    -4.361000000
H    -4.521000000     2.580000000    -3.948000000
O    -2.597000000     2.438000000     3.068000000
H    -2.008000000     2.875000000     2.453000000
H    -2.496000000     1.506000000     2.874000000
O    -3.180000000    -0.349000000    -4.002000000
H    -3.454000000    -0.693000000    -3.151000000
H    -3.703000000    -0.839000000    -4.637000000
O     2.802000000    -4.745000000     2.217000000
H     3.143000000    -5.151000000     3.014000000
H     3.213000000    -3.881000000     2.195000000
O    -3.666000000    -1.830000000     0.618000000
H    -2.886000000    -1.904000000     1.167000000
H    -4.383000000    -1.693000000     1.237000000
O     0.667000000    -6.398000000     1.206000000
H     0.988000000    -6.984000000     1.891000000
H     1.114000000    -5.568000000     1.371000000
O    -3.525000000    -4.499000000     2.573000000
H    -3.901000000    -4.831000000     3.388000000
H    -3.184000000    -3.635000000     2.800000000
O    -1.769000000     5.573000000    -2.596000000
H    -2.685000000     5.807000000    -2.742000000
H    -1.807000000     4.799000000    -2.033000000
O    -1.965000000    -2.214000000     2.635000000
H    -2.178000000    -1.631000000     3.363000000
H    -1.086000000    -2.535000000     2.835000000
O    -5.038000000     5.518000000    -3.524000000
H    -5.889000000     5.755000000    -3.156000000
H    -4.816000000     4.689000000    -3.099000000
O     1.554000000    -2.588000000     4.516000000
H     1.947000000    -2.497000000     3.648000000
H     1.769000000    -1.769000000     4.962000000
O     3.630000000     3.549000000    -0.427000000
H     3.637000000     4.393000000     0.025000000
H     2.751000000     3.487000000    -0.803000000
O     2.222000000     5.906000000    -1.879000000
H     2.035000000     6.742000000    -1.452000000
H     2.912000000     6.109000000    -2.510000000
O     0.663000000     4.119000000     2.494000000
H     0.303000000     4.850000000     2.996000000
H    -0.068000000     3.814000000     1.957000000
O    -0.103000000    -5.205000000    -4.957000000
H     0.441000000    -4.475000000    -5.254000000
H    -0.236000000    -5.040000000    -4.023000000
O     0.259000000    -5.005000000     4.332000000
H     0.793000000    -5.693000000     3.936000000
H     0.864000000    -4.273000000     4.455000000
O     0.805000000    -1.310000000    -6.653000000
H     0.425000000    -1.115000000    -5.797000000
H     1.633000000    -1.748000000    -6.453000000
O    -2.946000000    -4.058000000    -4.327000000
H    -3.072000000    -3.134000000    -4.546000000
H    -2.265000000    -4.053000000    -3.654000000
O     0.206000000     6.087000000     0.325000000
H    -0.540000000     5.515000000     0.148000000
H     0.845000000     5.522000000     0.758000000
O    -3.384000000     5.870000000     4.227000000
H    -4.195000000     5.536000000     3.842000000
H    -2.821000000     6.057000000     3.476000000
