161
-3083.25965
C    -0.551000000     0.815000000    -1.107000000
H    -0.933000000     1.370000000    -1.961000000
C     0.444000000    -0.133000000    -1.282000000
H     0.897000000    -0.318000000    -2.252000000
C     0.830000000    -0.877000000    -0.185000000
C     1.860000000    -1.938000000    -0.258000000
H     1.580000000    -2.917000000    -0.653000000
H     2.606000000    -1.626000000    -0.991000000
H     2.335000000    -2.044000000     0.720000000
C     0.213000000    -0.637000000     1.038000000
H     0.445000000    -1.337000000     1.836000000
C    -0.682000000     0.404000000     1.253000000
H    -0.977000000     0.586000000     2.282000000
C    -1.049000000     1.130000000     0.167000000
C    -2.093000000     2.220000000     0.393000000
O    -2.619000000     2.216000000     1.463000000
O    -2.303000000     3.085000000    -0.467000000
O    -2.782000000     4.946000000    -2.201000000
H    -2.466000000     4.144000000    -1.786000000
H    -2.376000000     5.652000000    -1.698000000
O     1.960000000    -1.276000000     4.136000000
H     1.106000000    -1.637000000     3.898000000
H     2.591000000    -1.911000000     3.797000000
O     1.438000000    -2.309000000    -4.358000000
H     1.866000000    -1.733000000    -4.991000000
H     0.517000000    -2.050000000    -4.383000000
O     4.472000000    -3.513000000    -1.456000000
H     3.975000000    -3.077000000    -0.764000000
H     5.343000000    -3.642000000    -1.080000000
O     2.648000000    -5.358000000     2.063000000
H     3.468000000    -5.447000000     1.576000000
H     2.653000000    -4.454000000     2.377000000
O    -3.725000000    -1.636000000    -3.079000000
H    -4.175000000    -2.117000000    -3.773000000
H    -4.392000000    -1.508000000    -2.404000000
O     3.540000000     2.665000000    -2.729000000
H     3.468000000     2.101000000    -1.960000000
H     4.352000000     2.389000000    -3.153000000
O    -1.553000000    -3.628000000    -2.375000000
H    -2.426000000    -3.631000000    -2.768000000
H    -1.153000000    -2.816000000    -2.686000000
O     3.538000000    -1.032000000    -5.992000000
H     3.884000000    -0.828000000    -5.123000000
H     4.294000000    -0.963000000    -6.574000000
O     1.311000000     1.754000000     3.144000000
H     1.272000000     0.978000000     3.703000000
H     0.566000000     2.288000000     3.423000000
O    -3.159000000     2.581000000    -5.084000000
H    -3.850000000     2.093000000    -5.532000000
H    -3.623000000     3.270000000    -4.608000000
O    -0.913000000     6.237000000     2.973000000
H    -0.297000000     6.519000000     2.297000000
H    -1.562000000     5.714000000     2.502000000
O    -0.127000000    -5.846000000     1.389000000
H     0.723000000    -5.894000000     1.826000000
H     0.064000000    -5.456000000     0.536000000
O     6.180000000    -3.165000000    -3.671000000
H     5.603000000    -3.495000000    -4.360000000
H     5.651000000    -3.208000000    -2.874000000
O    -4.920000000     1.803000000     5.436000000
H    -4.793000000     2.194000000     4.571000000
H    -5.318000000     0.951000000     5.258000000
O    -5.192000000     4.776000000    -0.569000000
H    -5.829000000     4.091000000    -0.776000000
H    -4.341000000     4.351000000    -0.675000000
O    -2.932000000    -1.529000000     3.657000000
H    -3.582000000    -2.080000000     4.092000000
H    -2.356000000    -1.235000000     4.362000000
O     4.815000000    -0.175000000     3.984000000
H     4.093000000    -0.747000000     3.724000000
H     4.996000000    -0.415000000     4.893000000
O    -4.089000000     0.102000000     1.867000000
H    -3.569000000     0.905000000     1.826000000
H    -3.682000000    -0.411000000     2.565000000
O    -0.880000000     1.083000000    -5.092000000
H    -1.621000000     1.689000000    -5.114000000
H    -0.113000000     1.646000000    -4.994000000
O    -1.272000000    -0.295000000     5.556000000
H    -0.354000000    -0.096000000     5.738000000
H    -1.653000000     0.545000000     5.300000000
O    -0.035000000    -1.384000000    -6.898000000
H    -0.150000000    -0.818000000    -6.135000000
H    -0.276000000    -2.257000000    -6.587000000
O    -4.849000000     3.281000000     2.970000000
H    -4.571000000     4.194000000     2.898000000
H    -4.318000000     2.818000000     2.322000000
O    -1.126000000     2.669000000     3.926000000
H    -1.709000000     2.633000000     3.167000000
H    -1.516000000     3.333000000     4.495000000
O     1.037000000     3.029000000    -4.073000000
H     0.509000000     3.211000000    -3.296000000
H     1.913000000     2.850000000    -3.731000000
O     0.328000000    -5.181000000    -1.255000000
H     0.989000000    -5.044000000    -1.934000000
H    -0.360000000    -4.548000000    -1.460000000
O     4.876000000     0.875000000    -0.914000000
H     5.746000000     0.991000000    -0.531000000
H     4.278000000     1.251000000    -0.268000000
O    -5.617000000     0.748000000    -0.387000000
H    -4.753000000     0.694000000     0.022000000
H    -5.689000000    -0.056000000    -0.902000000
O    -2.712000000    -2.021000000    -0.388000000
H    -2.290000000    -2.617000000    -1.007000000
H    -2.188000000    -1.221000000    -0.431000000
O    -4.484000000     5.240000000    -4.155000000
H    -4.595000000     6.189000000    -4.088000000
H    -3.985000000     5.001000000    -3.374000000
O    -2.493000000     6.862000000    -0.406000000
H    -3.289000000     7.392000000    -0.444000000
H    -1.808000000     7.477000000    -0.146000000
O     1.610000000     0.238000000     6.422000000
H     2.097000000     1.037000000     6.221000000
H     1.899000000    -0.391000000     5.760000000
O     3.402000000    -7.281000000    -1.195000000
H     2.876000000    -7.197000000    -1.990000000
H     2.987000000    -6.688000000    -0.570000000
O    -0.116000000     4.092000000    -1.327000000
H     0.562000000     3.909000000    -0.676000000
H    -0.897000000     3.653000000    -0.990000000
O     3.854000000     1.216000000     1.550000000
H     2.996000000     1.384000000     1.939000000
H     4.406000000     0.959000000     2.288000000
O    -0.589000000     5.899000000    -3.645000000
H     0.107000000     5.706000000    -3.018000000
H    -1.312000000     5.330000000    -3.384000000
O    -1.225000000    -1.307000000    -4.113000000
H    -2.051000000    -1.381000000    -3.633000000
H    -1.206000000    -0.400000000    -4.418000000
O    -3.343000000     5.028000000     1.397000000
H    -3.349000000     5.494000000     0.560000000
H    -3.137000000     4.122000000     1.165000000
O     3.841000000    -3.089000000     3.108000000
H     4.515000000    -3.396000000     3.714000000
H     4.316000000    -2.892000000     2.301000000
O    -2.350000000    -3.331000000     1.894000000
H    -2.315000000    -2.963000000     1.011000000
H    -2.716000000    -2.629000000     2.432000000
O     4.658000000    -0.334000000    -3.398000000
H     4.451000000     0.191000000    -2.625000000
H     5.500000000    -0.741000000    -3.193000000
O     1.366000000     3.377000000     0.948000000
H     1.078000000     2.589000000     1.408000000
H     2.035000000     3.757000000     1.518000000
O     0.384000000     6.589000000     0.274000000
H     0.462000000     6.102000000    -0.547000000
H     0.674000000     5.973000000     0.946000000
O     5.029000000    -1.781000000     0.892000000
H     5.834000000    -1.264000000     0.872000000
H     4.426000000    -1.307000000     0.318000000
O     2.608000000    -4.740000000    -2.919000000
H     3.423000000    -4.592000000    -2.439000000
H     2.392000000    -3.886000000    -3.294000000
O     5.492000000    -5.140000000     1.500000000
H     5.788000000    -4.622000000     0.751000000
H     6.137000000    -5.843000000     1.574000000
O    -5.728000000     6.467000000     1.935000000
H    -6.559000000     6.006000000     1.820000000
H    -5.086000000     5.918000000     1.484000000
O    -0.286000000    -2.960000000     3.631000000
H    -0.772000000    -3.719000000     3.953000000
H    -0.788000000    -2.657000000     2.874000000
