161
-3034.66299
C    -0.878000000     0.130000000     1.151000000
H    -1.483000000     0.206000000     2.050000000
C     0.514000000    -0.086000000     1.139000000
H     1.010000000     0.028000000     2.099000000
C     1.266000000    -0.195000000    -0.006000000
C     2.636000000    -0.591000000     0.154000000
H     3.064000000    -1.022000000    -0.753000000
H     3.253000000     0.295000000     0.324000000
H     2.797000000    -1.238000000     1.019000000
C     0.572000000     0.016000000    -1.223000000
H     1.112000000    -0.040000000    -2.165000000
C    -0.787000000     0.213000000    -1.249000000
H    -1.335000000     0.334000000    -2.179000000
C    -1.496000000     0.222000000    -0.028000000
C    -3.005000000     0.460000000    -0.059000000
O    -3.504000000     0.508000000    -1.167000000
O    -3.736000000     0.765000000     0.886000000
O     3.190000000     3.422000000     2.747000000
H     3.037000000     3.296000000     1.811000000
H     4.108000000     3.185000000     2.874000000
O    -3.143000000     2.494000000    -2.959000000
H    -3.233000000     1.816000000    -2.290000000
H    -2.207000000     2.509000000    -3.162000000
O     2.027000000    -2.066000000     4.437000000
H     1.544000000    -2.832000000     4.745000000
H     1.393000000    -1.350000000     4.481000000
O    -3.449000000     1.889000000     3.370000000
H    -2.980000000     2.648000000     3.024000000
H    -3.810000000     1.457000000     2.595000000
O    -6.005000000     0.986000000    -1.825000000
H    -5.973000000     1.106000000    -2.774000000
H    -5.093000000     0.850000000    -1.570000000
O     1.371000000    -3.895000000     2.027000000
H     1.837000000    -4.504000000     1.454000000
H     2.051000000    -3.305000000     2.354000000
O    -1.291000000     3.693000000     2.406000000
H    -0.895000000     3.301000000     3.184000000
H    -0.671000000     3.506000000     1.701000000
O     1.770000000     3.827000000    -2.628000000
H     2.614000000     3.379000000    -2.588000000
H     1.954000000     4.713000000    -2.315000000
O     1.449000000     1.955000000    -5.965000000
H     2.007000000     2.012000000    -6.741000000
H     1.512000000     1.040000000    -5.692000000
O     7.808000000    -1.789000000     1.915000000
H     7.285000000    -2.431000000     1.435000000
H     7.451000000    -1.806000000     2.803000000
O     1.624000000    -0.910000000    -6.089000000
H     2.403000000    -1.066000000    -5.555000000
H     1.945000000    -0.925000000    -6.991000000
O    -4.796000000    -3.616000000    -0.041000000
H    -4.972000000    -4.501000000     0.278000000
H    -5.020000000    -3.046000000     0.695000000
O     5.037000000    -5.599000000     1.741000000
H     5.558000000    -4.824000000     1.534000000
H     5.307000000    -5.839000000     2.628000000
O    -2.402000000    -0.165000000     4.915000000
H    -2.680000000     0.388000000     4.184000000
H    -3.185000000    -0.663000000     5.150000000
O     5.659000000    -3.345000000    -3.771000000
H     6.157000000    -3.499000000    -4.574000000
H     6.263000000    -3.579000000    -3.066000000
O    -0.959000000    -5.103000000     2.995000000
H    -1.598000000    -4.397000000     3.089000000
H    -0.143000000    -4.658000000     2.764000000
O     4.503000000     0.185000000    -6.303000000
H     4.001000000     0.960000000    -6.557000000
H     4.470000000     0.181000000    -5.346000000
O     1.374000000     2.440000000     4.574000000
H     2.023000000     2.659000000     3.905000000
H     1.177000000     3.274000000     4.999000000
O    -5.974000000     0.867000000    -4.461000000
H    -6.475000000     0.078000000    -4.669000000
H    -5.094000000     0.685000000    -4.789000000
O     5.432000000    -0.806000000    -1.528000000
H     6.289000000    -1.229000000    -1.477000000
H     4.817000000    -1.473000000    -1.224000000
O    -5.386000000    -1.182000000     1.299000000
H    -6.092000000    -0.683000000     1.708000000
H    -4.690000000    -0.540000000     1.156000000
O     3.459000000    -3.538000000    -5.419000000
H     3.960000000    -3.924000000    -6.137000000
H     4.121000000    -3.158000000    -4.841000000
O    -4.198000000    -2.765000000    -4.818000000
H    -4.018000000    -2.606000000    -3.891000000
H    -3.680000000    -3.541000000    -5.032000000
O    -1.126000000    -3.134000000    -3.755000000
H    -1.737000000    -3.866000000    -3.841000000
H    -1.391000000    -2.694000000    -2.947000000
O    -4.415000000    -3.454000000     3.494000000
H    -3.603000000    -3.006000000     3.259000000
H    -5.103000000    -2.813000000     3.315000000
O    -8.015000000     3.050000000    -1.591000000
H    -8.759000000     2.463000000    -1.724000000
H    -7.253000000     2.471000000    -1.573000000
O    -3.162000000     1.269000000    -5.504000000
H    -2.545000000     0.544000000    -5.412000000
H    -3.186000000     1.676000000    -4.638000000
O     6.089000000     0.654000000     1.448000000
H     6.747000000    -0.034000000     1.351000000
H     5.419000000     0.267000000     2.012000000
O    -5.040000000     4.621000000    -3.313000000
H    -4.299000000     4.061000000    -3.081000000
H    -5.009000000     5.336000000    -2.678000000
O     5.128000000     1.787000000    -0.871000000
H     5.147000000     0.921000000    -1.277000000
H     5.791000000     1.742000000    -0.182000000
O    -6.925000000    -1.617000000    -1.205000000
H    -6.723000000    -0.714000000    -1.450000000
H    -6.160000000    -1.908000000    -0.708000000
O     3.893000000     0.346000000    -3.700000000
H     3.938000000     1.270000000    -3.453000000
H     4.255000000    -0.121000000    -2.947000000
O    -0.270000000     2.737000000    -4.031000000
H     0.445000000     3.229000000    -3.627000000
H     0.151000000     2.229000000    -4.725000000
O     4.350000000    -0.766000000     3.483000000
H     3.605000000    -1.295000000     3.765000000
H     4.588000000    -0.255000000     4.257000000
O    -3.669000000    -1.916000000    -2.319000000
H    -3.425000000    -1.038000000    -2.027000000
H    -3.944000000    -2.366000000    -1.521000000
O    -2.203000000     4.541000000    -0.615000000
H    -1.561000000     3.839000000    -0.508000000
H    -3.049000000     4.093000000    -0.623000000
O     0.290000000     0.016000000     5.938000000
H     0.430000000     0.839000000     5.469000000
H    -0.628000000     0.047000000     6.207000000
O    -2.310000000     4.252000000    -5.404000000
H    -2.383000000     4.864000000    -4.671000000
H    -1.644000000     3.623000000    -5.125000000
O    -4.681000000     3.219000000     0.482000000
H    -5.075000000     3.163000000    -0.388000000
H    -4.411000000     2.323000000     0.681000000
O     6.721000000    -3.610000000     0.454000000
H     7.163000000    -4.412000000     0.177000000
H     5.912000000    -3.593000000    -0.057000000
O    -1.228000000    -0.712000000    -5.245000000
H    -0.353000000    -0.375000000    -5.050000000
H    -1.245000000    -1.582000000    -4.847000000
O     0.045000000     3.134000000    -0.252000000
H    -0.099000000     2.206000000    -0.441000000
H     0.686000000     3.414000000    -0.905000000
O     4.015000000     3.965000000     0.106000000
H     4.415000000     3.184000000    -0.277000000
H     4.295000000     4.681000000    -0.464000000
O     4.227000000    -3.535000000    -1.116000000
H     3.573000000    -4.147000000    -0.777000000
H     4.259000000    -3.716000000    -2.056000000
O     0.874000000    -3.988000000    -5.468000000
H     1.739000000    -3.637000000    -5.252000000
H     0.308000000    -3.681000000    -4.760000000
O     2.725000000    -5.539000000     0.316000000
H     3.467000000    -5.721000000     0.893000000
H     2.721000000    -6.266000000    -0.306000000
O    -5.665000000     5.371000000     1.958000000
H    -5.129000000     4.641000000     1.651000000
H    -5.864000000     5.156000000     2.869000000
O    -1.999000000    -2.386000000     3.080000000
H    -1.213000000    -2.594000000     2.575000000
H    -1.759000000    -1.613000000     3.589000000
