161
-3054.32215
C    -0.325000000     0.665000000     1.305000000
H    -0.472000000     0.891000000     2.358000000
C     0.837000000    -0.076000000     0.999000000
H     1.617000000    -0.069000000     1.756000000
C     1.041000000    -0.657000000    -0.283000000
C     2.205000000    -1.489000000    -0.512000000
H     2.670000000    -1.186000000    -1.453000000
H     2.916000000    -1.316000000     0.299000000
H     1.850000000    -2.521000000    -0.515000000
C     0.066000000    -0.560000000    -1.242000000
H     0.315000000    -0.812000000    -2.270000000
C    -1.015000000     0.283000000    -0.948000000
H    -1.701000000     0.390000000    -1.785000000
C    -1.289000000     0.876000000     0.289000000
C    -2.572000000     1.681000000     0.603000000
O    -3.331000000     1.900000000    -0.320000000
O    -2.811000000     2.005000000     1.724000000
O    -3.422000000     1.784000000    -3.092000000
H    -3.429000000     1.526000000    -2.170000000
H    -2.956000000     2.620000000    -3.103000000
O     3.711000000     0.454000000     3.987000000
H     4.052000000     0.103000000     3.165000000
H     2.922000000    -0.059000000     4.158000000
O    -1.300000000     1.050000000     6.982000000
H    -1.689000000     1.760000000     7.493000000
H    -1.819000000     1.021000000     6.178000000
O    -1.401000000    -2.304000000     5.817000000
H    -1.795000000    -2.488000000     4.964000000
H    -2.124000000    -2.390000000     6.438000000
O    -2.993000000     6.192000000     3.433000000
H    -3.605000000     5.699000000     3.980000000
H    -3.120000000     5.837000000     2.553000000
O    -5.824000000     2.569000000    -1.190000000
H    -6.214000000     1.736000000    -1.455000000
H    -4.963000000     2.331000000    -0.844000000
O     3.724000000    -4.038000000    -2.687000000
H     3.604000000    -4.114000000    -3.634000000
H     4.128000000    -3.179000000    -2.565000000
O     0.555000000    -3.727000000     3.303000000
H     1.255000000    -4.241000000     2.901000000
H     1.001000000    -2.963000000     3.670000000
O     2.178000000     3.496000000    -1.510000000
H     2.561000000     4.278000000    -1.908000000
H     2.833000000     2.812000000    -1.646000000
O     1.867000000     1.345000000    -5.073000000
H     1.896000000     1.922000000    -5.836000000
H     1.668000000     0.481000000    -5.433000000
O     2.261000000    -1.847000000    -5.617000000
H     2.458000000    -2.037000000    -4.700000000
H     3.051000000    -1.420000000    -5.949000000
O    -5.972000000    -1.710000000     0.872000000
H    -5.914000000    -1.086000000     1.596000000
H    -5.801000000    -2.561000000     1.275000000
O     4.852000000    -4.815000000     2.140000000
H     4.869000000    -4.284000000     1.344000000
H     5.679000000    -5.297000000     2.124000000
O    -2.346000000     1.446000000     4.433000000
H    -3.217000000     1.661000000     4.768000000
H    -2.364000000     1.730000000     3.519000000
O    -2.905000000     7.228000000     0.278000000
H    -3.854000000     7.212000000     0.150000000
H    -2.610000000     6.365000000    -0.015000000
O     5.214000000    -1.743000000    -2.333000000
H     5.918000000    -1.377000000    -1.798000000
H     4.981000000    -1.039000000    -2.938000000
O     0.624000000     4.151000000     3.219000000
H     1.513000000     4.071000000     2.873000000
H     0.099000000     4.432000000     2.469000000
O    -6.620000000     0.082000000    -1.869000000
H    -5.994000000    -0.484000000    -1.418000000
H    -6.430000000    -0.043000000    -2.798000000
O     5.416000000    -6.264000000    -1.885000000
H     5.401000000    -6.247000000    -2.842000000
H     5.004000000    -5.441000000    -1.624000000
O     5.008000000     2.243000000    -1.783000000
H     5.386000000     3.105000000    -1.608000000
H     5.220000000     1.726000000    -1.006000000
O    -4.243000000    -0.084000000     2.840000000
H    -4.392000000     0.360000000     3.675000000
H    -3.768000000     0.557000000     2.310000000
O    -3.778000000    -1.786000000    -3.800000000
H    -4.147000000    -2.669000000    -3.817000000
H    -3.731000000    -1.564000000    -2.871000000
O    -3.198000000    -2.381000000     3.610000000
H    -2.727000000    -2.640000000     2.818000000
H    -3.782000000    -1.679000000     3.322000000
O    -3.174000000     0.041000000    -5.387000000
H    -3.548000000    -0.733000000    -4.966000000
H    -3.102000000     0.686000000    -4.684000000
O     5.893000000     1.573000000     0.711000000
H     6.251000000     1.138000000     1.485000000
H     5.634000000     2.440000000     1.023000000
O    -5.698000000     2.715000000    -4.460000000
H    -5.700000000     1.776000000    -4.649000000
H    -5.327000000     2.780000000    -3.580000000
O    -7.787000000     1.843000000     3.260000000
H    -6.883000000     2.007000000     3.529000000
H    -7.939000000     0.925000000     3.482000000
O    -5.184000000     1.855000000     4.664000000
H    -5.152000000     2.810000000     4.721000000
H    -5.441000000     1.572000000     5.541000000
O     4.458000000     0.400000000    -3.690000000
H     3.610000000     0.688000000    -4.028000000
H     4.724000000     1.096000000    -3.089000000
O     0.258000000     3.157000000    -3.541000000
H     0.771000000     3.148000000    -2.733000000
H     0.695000000     2.523000000    -4.109000000
O     3.161000000     3.116000000     2.533000000
H     3.590000000     3.335000000     3.360000000
H     3.027000000     2.169000000     2.576000000
O    -3.904000000    -1.380000000    -0.822000000
H    -3.347000000    -0.963000000    -0.165000000
H    -4.688000000    -1.644000000    -0.338000000
O    -3.701000000     5.049000000    -3.085000000
H    -3.878000000     5.989000000    -3.050000000
H    -3.450000000     4.820000000    -2.190000000
O     1.236000000    -1.085000000     4.349000000
H     1.608000000    -1.442000000     5.155000000
H     0.463000000    -0.599000000     4.636000000
O     2.105000000    -5.370000000    -0.512000000
H     2.449000000    -4.959000000    -1.305000000
H     1.158000000    -5.400000000    -0.648000000
O    -2.526000000     4.507000000    -0.628000000
H    -1.612000000     4.416000000    -0.357000000
H    -2.879000000     3.618000000    -0.582000000
O     0.643000000     2.579000000     5.384000000
H     0.501000000     2.819000000     4.468000000
H    -0.043000000     1.939000000     5.572000000
O    -1.594000000     4.391000000    -4.997000000
H    -2.265000000     4.644000000    -4.363000000
H    -1.011000000     3.808000000    -4.510000000
O    -4.694000000     4.115000000     1.611000000
H    -4.776000000     4.099000000     0.658000000
H    -4.047000000     3.438000000     1.807000000
O     4.332000000    -1.699000000     2.624000000
H     5.191000000    -1.576000000     3.027000000
H     4.486000000    -2.328000000     1.919000000
O     7.160000000    -0.479000000    -0.791000000
H     6.594000000     0.196000000    -0.417000000
H     8.042000000    -0.235000000    -0.509000000
O    -0.820000000    -2.121000000    -5.527000000
H     0.070000000    -1.812000000    -5.696000000
H    -1.363000000    -1.337000000    -5.597000000
O     0.177000000     3.505000000     0.377000000
H     0.155000000     2.671000000     0.845000000
H     0.772000000     3.353000000    -0.357000000
O    -8.197000000     2.520000000     0.568000000
H    -7.896000000     2.477000000     1.475000000
H    -7.397000000     2.630000000     0.054000000
O     4.735000000     4.263000000     0.762000000
H     3.934000000     3.937000000     1.172000000
H     4.815000000     5.164000000     1.074000000
O     5.394000000    -2.842000000     0.245000000
H     4.959000000    -2.608000000    -0.575000000
H     6.259000000    -2.437000000     0.181000000
O     2.377000000    -5.445000000     2.234000000
H     3.261000000    -5.173000000     2.481000000
H     2.461000000    -5.733000000     1.325000000
O    -1.434000000    -2.650000000     1.451000000
H    -0.541000000    -2.770000000     1.775000000
H    -1.420000000    -3.022000000     0.569000000
