161
-3042.50860
C    -0.559000000     1.323000000     0.061000000
H    -0.888000000     2.339000000     0.261000000
C     0.224000000     0.704000000     1.027000000
H     0.383000000     1.334000000     1.899000000
C     0.821000000    -0.526000000     0.786000000
C     1.726000000    -1.108000000     1.854000000
H     1.440000000    -0.753000000     2.847000000
H     1.612000000    -2.192000000     1.918000000
H     2.770000000    -0.877000000     1.632000000
C     0.483000000    -1.214000000    -0.429000000
H     0.780000000    -2.250000000    -0.571000000
C    -0.414000000    -0.610000000    -1.338000000
H    -0.772000000    -1.147000000    -2.213000000
C    -0.952000000     0.657000000    -1.102000000
C    -1.925000000     1.261000000    -1.978000000
O    -2.132000000     0.841000000    -3.072000000
O    -2.595000000     2.221000000    -1.588000000
O     5.340000000    -2.572000000    -2.310000000
H     4.832000000    -1.763000000    -2.371000000
H     4.813000000    -3.145000000    -1.752000000
O     0.566000000     6.874000000     2.189000000
H    -0.198000000     7.092000000     1.655000000
H     0.589000000     5.917000000     2.196000000
O    -4.564000000     2.497000000    -3.279000000
H    -3.929000000     2.468000000    -2.563000000
H    -4.047000000     2.319000000    -4.064000000
O     0.207000000     1.288000000     5.201000000
H     0.055000000     2.190000000     5.482000000
H     1.094000000     1.295000000     4.841000000
O     0.487000000     3.908000000     1.886000000
H     0.240000000     3.840000000     0.964000000
H     1.397000000     3.615000000     1.913000000
O    -0.886000000    -4.167000000     1.118000000
H    -0.844000000    -3.211000000     1.121000000
H    -1.681000000    -4.374000000     1.610000000
O     1.283000000    -5.847000000     1.278000000
H     1.297000000    -6.498000000     0.577000000
H     0.443000000    -5.399000000     1.172000000
O     4.717000000    -0.216000000    -0.277000000
H     5.118000000     0.555000000     0.124000000
H     5.375000000    -0.904000000    -0.182000000
O     3.992000000     3.358000000     2.572000000
H     4.894000000     3.560000000     2.326000000
H     3.555000000     3.163000000     1.743000000
O     3.085000000    -4.258000000    -0.811000000
H     2.764000000    -3.922000000    -1.647000000
H     2.293000000    -4.493000000    -0.327000000
O     2.838000000     3.027000000     0.222000000
H     2.916000000     2.268000000    -0.355000000
H     2.194000000     3.590000000    -0.208000000
O    -4.048000000     5.318000000     3.382000000
H    -3.927000000     5.031000000     4.287000000
H    -3.195000000     5.178000000     2.970000000
O    -0.140000000    -4.449000000    -2.972000000
H    -0.989000000    -4.223000000    -2.590000000
H    -0.220000000    -4.206000000    -3.894000000
O    -2.993000000     0.643000000     4.991000000
H    -3.465000000     0.916000000     4.204000000
H    -2.089000000     0.919000000     4.837000000
O    -5.440000000     5.021000000    -4.273000000
H    -5.381000000     5.058000000    -3.319000000
H    -5.049000000     4.178000000    -4.504000000
O     2.621000000    -2.807000000    -3.234000000
H     3.145000000    -2.344000000    -3.889000000
H     1.948000000    -3.260000000    -3.743000000
O     4.566000000     0.389000000     6.413000000
H     3.988000000     1.030000000     6.000000000
H     4.088000000     0.099000000     7.190000000
O     1.669000000    -6.717000000    -3.111000000
H     1.716000000    -6.918000000    -2.176000000
H     1.085000000    -5.960000000    -3.164000000
O    -1.790000000     3.143000000     3.385000000
H    -2.192000000     3.230000000     2.521000000
H    -0.849000000     3.194000000     3.217000000
O    -1.310000000     4.140000000    -2.718000000
H    -1.805000000     3.493000000    -2.214000000
H    -1.358000000     3.827000000    -3.621000000
O     2.677000000     1.644000000     4.180000000
H     3.240000000     0.973000000     3.796000000
H     2.800000000     2.410000000     3.618000000
O    -0.263000000    -3.050000000    -5.615000000
H    -0.873000000    -2.789000000    -6.305000000
H     0.471000000    -2.443000000    -5.702000000
O    -4.820000000    -2.044000000    -1.755000000
H    -5.191000000    -2.306000000    -0.913000000
H    -4.515000000    -1.148000000    -1.615000000
O     6.833000000    -1.730000000     0.814000000
H     7.380000000    -1.295000000     1.469000000
H     6.667000000    -2.599000000     1.180000000
O     0.759000000     4.400000000    -1.115000000
H     1.294000000     5.078000000    -1.527000000
H    -0.061000000     4.409000000    -1.608000000
O    -3.513000000    -1.880000000     2.484000000
H    -4.423000000    -1.954000000     2.773000000
H    -3.458000000    -1.012000000     2.085000000
O    -3.618000000     1.987000000    -6.070000000
H    -4.190000000     2.574000000    -6.563000000
H    -2.744000000     2.364000000    -6.169000000
O    -6.141000000     3.205000000     0.195000000
H    -6.335000000     3.614000000    -0.648000000
H    -6.859000000     2.588000000     0.333000000
O     3.301000000    -2.552000000     5.909000000
H     3.336000000    -1.748000000     5.389000000
H     3.093000000    -2.255000000     6.795000000
O    -1.195000000     3.366000000    -5.506000000
H    -1.268000000     4.030000000    -6.192000000
H    -0.325000000     3.504000000    -5.131000000
O     0.729000000    -5.153000000     4.230000000
H     1.465000000    -5.278000000     3.630000000
H     0.164000000    -4.519000000     3.787000000
O     4.311000000    -5.723000000     2.357000000
H     3.985000000    -6.495000000     2.820000000
H     3.599000000    -5.481000000     1.764000000
O    -4.500000000     1.148000000     2.709000000
H    -5.424000000     1.310000000     2.519000000
H    -4.032000000     1.822000000     2.216000000
O    -3.079000000     6.482000000    -2.336000000
H    -2.356000000     5.969000000    -2.697000000
H    -3.022000000     6.344000000    -1.391000000
O    -6.693000000     0.665000000    -3.527000000
H    -7.051000000     1.404000000    -4.019000000
H    -5.811000000     0.945000000    -3.283000000
O    -3.604000000    -0.445000000    -4.907000000
H    -3.279000000    -0.223000000    -4.034000000
H    -3.625000000     0.391000000    -5.374000000
O    -2.644000000    -3.441000000    -2.599000000
H    -3.444000000    -3.053000000    -2.244000000
H    -2.668000000    -3.229000000    -3.532000000
O    -0.629000000     0.649000000    -5.207000000
H    -0.775000000     1.532000000    -5.547000000
H    -1.177000000     0.602000000    -4.423000000
O    -0.867000000     6.917000000    -0.573000000
H    -0.440000000     7.760000000    -0.729000000
H    -0.480000000     6.329000000    -1.222000000
O     0.241000000     0.110000000    -7.916000000
H     0.871000000     0.829000000    -7.947000000
H    -0.045000000     0.080000000    -7.003000000
O    -4.915000000     0.689000000    -0.795000000
H    -5.400000000     1.488000000    -0.589000000
H    -3.995000000     0.953000000    -0.771000000
O    -3.519000000    -3.106000000    -5.232000000
H    -2.885000000    -3.129000000    -5.949000000
H    -3.660000000    -2.174000000    -5.065000000
O     2.528000000     1.723000000    -4.099000000
H     2.700000000     1.658000000    -3.160000000
H     1.731000000     1.209000000    -4.233000000
O     2.538000000     0.841000000    -1.363000000
H     1.724000000     0.412000000    -1.099000000
H     3.227000000     0.334000000    -0.933000000
O     6.659000000     1.241000000     1.049000000
H     7.160000000     2.040000000     1.212000000
H     6.795000000     0.708000000     1.832000000
O     3.369000000    -5.259000000     5.475000000
H     2.449000000    -5.160000000     5.232000000
H     3.691000000    -4.362000000     5.568000000
O    -3.295000000     3.236000000     0.604000000
H    -3.113000000     3.122000000    -0.328000000
H    -4.181000000     3.595000000     0.634000000
O    -2.165000000    -1.865000000     5.817000000
H    -2.603000000    -1.130000000     5.388000000
H    -1.502000000    -1.456000000     6.374000000
