161
-3068.74506
C    -0.812000000     1.195000000    -0.307000000
H    -1.431000000     2.034000000    -0.616000000
C    -0.031000000     0.501000000    -1.210000000
H     0.035000000     0.746000000    -2.267000000
C     0.669000000    -0.655000000    -0.851000000
C     1.675000000    -1.284000000    -1.733000000
H     1.270000000    -2.263000000    -2.000000000
H     1.727000000    -0.727000000    -2.671000000
H     2.628000000    -1.429000000    -1.219000000
C     0.552000000    -1.137000000     0.486000000
H     0.977000000    -2.096000000     0.771000000
C    -0.179000000    -0.382000000     1.387000000
H    -0.174000000    -0.714000000     2.422000000
C    -0.895000000     0.820000000     1.039000000
C    -1.791000000     1.592000000     1.988000000
O    -1.723000000     1.293000000     3.186000000
O    -2.492000000     2.509000000     1.599000000
O    -2.560000000     4.228000000    -5.305000000
H    -1.871000000     3.677000000    -4.936000000
H    -2.792000000     4.829000000    -4.597000000
O     4.852000000    -5.373000000    -3.639000000
H     5.097000000    -4.706000000    -2.997000000
H     5.684000000    -5.668000000    -4.007000000
O    -2.941000000     6.088000000    -1.687000000
H    -2.931000000     5.595000000    -0.867000000
H    -2.092000000     5.904000000    -2.088000000
O     4.409000000    -1.405000000    -5.724000000
H     4.035000000    -0.750000000    -5.134000000
H     4.709000000    -0.901000000    -6.480000000
O     6.006000000     0.085000000    -0.547000000
H     5.874000000     0.661000000     0.206000000
H     5.607000000    -0.745000000    -0.287000000
O     0.246000000     3.182000000     4.013000000
H     0.596000000     3.929000000     3.527000000
H    -0.499000000     2.886000000     3.491000000
O    -0.755000000    -4.711000000    -0.364000000
H    -0.581000000    -5.587000000    -0.706000000
H    -0.583000000    -4.782000000     0.575000000
O    -5.376000000     1.415000000     3.165000000
H    -5.089000000     0.545000000     2.888000000
H    -4.579000000     1.945000000     3.152000000
O     4.138000000     0.862000000    -4.158000000
H     3.470000000     1.081000000    -3.508000000
H     3.959000000     1.449000000    -4.893000000
O     3.089000000     3.918000000    -3.714000000
H     3.345000000     3.197000000    -3.138000000
H     2.549000000     4.484000000    -3.162000000
O     1.443000000     1.618000000     7.260000000
H     1.407000000     1.226000000     6.387000000
H     2.301000000     1.365000000     7.600000000
O     4.664000000    -3.595000000     3.435000000
H     5.447000000    -3.283000000     3.888000000
H     4.070000000    -2.844000000     3.438000000
O    -2.902000000     0.451000000    -3.451000000
H    -3.186000000     0.321000000    -4.356000000
H    -3.709000000     0.401000000    -2.938000000
O     1.481000000     3.478000000     0.714000000
H     1.376000000     2.567000000     0.443000000
H     2.427000000     3.595000000     0.802000000
O     6.198000000    -0.463000000    -3.301000000
H     6.282000000    -0.129000000    -2.408000000
H     5.394000000    -0.062000000    -3.632000000
O    -4.373000000    -0.059000000    -0.663000000
H    -5.073000000    -0.398000000    -0.106000000
H    -3.571000000    -0.426000000    -0.290000000
O    -5.557000000    -1.148000000     5.204000000
H    -4.802000000    -0.799000000     4.732000000
H    -5.505000000    -0.746000000     6.071000000
O    -4.802000000     2.463000000    -0.290000000
H    -3.903000000     2.506000000     0.037000000
H    -4.901000000     1.564000000    -0.603000000
O    -2.921000000     3.864000000     6.827000000
H    -2.972000000     3.555000000     5.923000000
H    -1.999000000     3.764000000     7.063000000
O     5.969000000    -3.089000000    -2.524000000
H     6.019000000    -2.246000000    -2.974000000
H     5.594000000    -2.882000000    -1.668000000
O    -1.329000000    -3.012000000    -2.594000000
H    -1.560000000    -2.170000000    -2.202000000
H    -1.179000000    -3.591000000    -1.847000000
O     4.581000000    -2.787000000    -0.153000000
H     3.869000000    -3.406000000    -0.314000000
H     4.733000000    -2.837000000     0.791000000
O    -0.850000000     2.450000000    -4.010000000
H    -1.415000000     1.874000000    -3.496000000
H    -0.171000000     1.872000000    -4.358000000
O    -0.154000000     6.084000000     4.242000000
H    -0.355000000     6.807000000     4.836000000
H    -0.610000000     5.331000000     4.618000000
O     2.723000000     1.068000000     0.815000000
H     3.013000000     1.444000000     1.646000000
H     2.315000000     0.237000000     1.058000000
O    -0.853000000     4.891000000    -3.042000000
H    -0.850000000     4.053000000    -3.506000000
H    -0.039000000     5.316000000    -3.310000000
O     3.760000000    -1.090000000     3.415000000
H     3.365000000    -0.360000000     3.891000000
H     4.461000000    -0.690000000     2.900000000
O     1.090000000    -1.499000000    -6.231000000
H     1.510000000    -1.739000000    -5.405000000
H     1.621000000    -1.927000000    -6.903000000
O     3.381000000     1.983000000    -1.861000000
H     3.029000000     1.541000000    -1.089000000
H     4.214000000     2.353000000    -1.567000000
O    -2.288000000    -3.041000000     4.234000000
H    -2.983000000    -3.656000000     4.000000000
H    -2.616000000    -2.189000000     3.948000000
O    -3.267000000     3.535000000     4.091000000
H    -3.850000000     4.188000000     3.704000000
H    -3.048000000     2.950000000     3.366000000
O     2.884000000     2.385000000     3.226000000
H     2.964000000     3.333000000     3.328000000
H     2.020000000     2.178000000     3.583000000
O    -2.553000000     5.048000000     0.972000000
H    -3.065000000     5.216000000     1.764000000
H    -2.386000000     4.106000000     0.990000000
O    -3.348000000    -0.884000000     2.836000000
H    -2.666000000    -0.227000000     2.976000000
H    -3.160000000    -1.244000000     1.969000000
O    -0.246000000    -1.658000000     4.886000000
H    -0.851000000    -2.260000000     4.453000000
H     0.518000000    -2.196000000     5.095000000
O     0.274000000    -3.987000000    -4.786000000
H     1.186000000    -3.913000000    -4.505000000
H    -0.236000000    -3.806000000    -3.997000000
O     1.030000000     0.588000000     4.774000000
H     0.377000000     1.220000000     4.475000000
H     0.624000000    -0.266000000     4.620000000
O    -0.007000000     5.594000000    -0.116000000
H     0.449000000     4.797000000     0.154000000
H    -0.838000000     5.567000000     0.360000000
O     1.041000000     1.036000000    -5.367000000
H     0.982000000     0.133000000    -5.677000000
H     0.825000000     1.567000000    -6.133000000
O    -2.546000000    -1.851000000     0.564000000
H    -1.638000000    -1.921000000     0.268000000
H    -3.004000000    -2.553000000     0.102000000
O     3.116000000    -3.973000000    -5.288000000
H     3.509000000    -4.513000000    -4.603000000
H     3.637000000    -3.170000000    -5.287000000
O    -4.283000000     0.537000000     7.025000000
H    -3.381000000     0.600000000     6.709000000
H    -4.240000000    -0.088000000     7.749000000
O    -1.846000000     0.536000000     5.685000000
H    -1.081000000    -0.037000000     5.637000000
H    -1.910000000     0.925000000     4.813000000
O     2.684000000    -4.696000000    -0.996000000
H     2.841000000    -5.634000000    -1.103000000
H     1.760000000    -4.633000000    -0.756000000
O    -6.030000000     4.639000000     0.615000000
H    -6.632000000     3.908000000     0.751000000
H    -5.198000000     4.224000000     0.387000000
O    -4.778000000     5.652000000     3.059000000
H    -4.824000000     6.589000000     3.249000000
H    -5.398000000     5.522000000     2.341000000
O     1.824000000    -4.051000000     4.423000000
H     2.582000000    -4.606000000     4.241000000
H     1.929000000    -3.795000000     5.339000000
O    -0.341000000    -4.879000000     2.375000000
H     0.277000000    -4.476000000     2.985000000
H    -1.167000000    -4.913000000     2.857000000
