161
-3044.58273
C     0.064000000     1.468000000    -0.300000000
H     0.263000000     2.512000000    -0.526000000
C     0.614000000     0.418000000    -1.090000000
H     1.311000000     0.734000000    -1.861000000
C     0.514000000    -0.910000000    -0.722000000
C     1.186000000    -2.052000000    -1.456000000
H     0.632000000    -2.124000000    -2.394000000
H     2.252000000    -1.859000000    -1.596000000
H     1.002000000    -2.987000000    -0.924000000
C    -0.274000000    -1.215000000     0.398000000
H    -0.380000000    -2.258000000     0.686000000
C    -0.792000000    -0.152000000     1.192000000
H    -1.365000000    -0.455000000     2.065000000
C    -0.630000000     1.144000000     0.847000000
C    -1.250000000     2.302000000     1.717000000
O    -1.972000000     2.022000000     2.687000000
O    -1.171000000     3.407000000     1.271000000
O    -4.549000000    -3.139000000    -3.753000000
H    -4.542000000    -2.892000000    -4.678000000
H    -3.713000000    -2.821000000    -3.414000000
O    -0.849000000    -6.435000000     1.509000000
H    -1.526000000    -6.138000000     0.901000000
H    -0.786000000    -5.734000000     2.158000000
O     0.513000000     5.137000000     0.071000000
H    -0.226000000     4.611000000     0.376000000
H     0.597000000     5.834000000     0.722000000
O    -5.541000000     1.315000000    -0.512000000
H    -6.269000000     1.516000000    -1.102000000
H    -5.026000000     2.121000000    -0.486000000
O     6.219000000    -5.489000000    -1.306000000
H     5.704000000    -6.294000000    -1.249000000
H     5.631000000    -4.805000000    -0.986000000
O     4.765000000    -1.844000000    -2.068000000
H     5.644000000    -1.633000000    -2.384000000
H     4.247000000    -1.961000000    -2.864000000
O    -2.944000000    -5.859000000    -3.466000000
H    -3.356000000    -6.014000000    -4.315000000
H    -2.232000000    -5.247000000    -3.653000000
O     1.344000000     6.691000000     2.947000000
H     1.225000000     7.082000000     3.812000000
H     1.995000000     7.248000000     2.520000000
O    -3.813000000     3.494000000     4.052000000
H    -4.613000000     3.338000000     3.551000000
H    -3.148000000     2.963000000     3.613000000
O    -2.762000000    -1.685000000    -0.651000000
H    -2.621000000    -2.038000000    -1.529000000
H    -1.893000000    -1.408000000    -0.361000000
O    -1.407000000     2.584000000    -4.068000000
H    -1.901000000     2.080000000    -3.421000000
H    -2.017000000     3.261000000    -4.361000000
O     4.370000000     1.084000000    -1.248000000
H     4.703000000     0.191000000    -1.333000000
H     4.157000000     1.172000000    -0.319000000
O    -3.448000000    -4.095000000     4.335000000
H    -3.870000000    -3.455000000     3.762000000
H    -4.158000000    -4.432000000     4.881000000
O     1.772000000     1.212000000     3.576000000
H     1.632000000     2.144000000     3.744000000
H     2.316000000     1.190000000     2.789000000
O     2.361000000    -1.010000000     4.906000000
H     2.415000000    -0.762000000     5.829000000
H     2.471000000    -0.186000000     4.430000000
O     3.725000000    -2.132000000     0.569000000
H     4.592000000    -1.758000000     0.727000000
H     3.730000000    -2.362000000    -0.360000000
O     0.893000000     3.881000000    -2.303000000
H     0.025000000     3.662000000    -2.642000000
H     0.720000000     4.398000000    -1.516000000
O     2.735000000     0.667000000     1.089000000
H     1.932000000     1.105000000     0.806000000
H     2.545000000    -0.266000000     0.995000000
O     1.430000000    -6.330000000    -1.715000000
H     0.538000000    -6.638000000    -1.875000000
H     1.716000000    -5.973000000    -2.556000000
O    -0.825000000    -4.317000000    -4.224000000
H    -0.777000000    -4.104000000    -5.156000000
H    -0.059000000    -4.868000000    -4.065000000
O    -2.100000000    -2.192000000    -3.090000000
H    -1.779000000    -1.368000000    -3.455000000
H    -1.699000000    -2.868000000    -3.637000000
O    -3.227000000     1.250000000    -2.322000000
H    -4.180000000     1.184000000    -2.386000000
H    -2.967000000     0.483000000    -1.813000000
O     1.919000000     3.959000000     3.787000000
H     2.086000000     4.126000000     4.715000000
H     1.496000000     4.758000000     3.473000000
O    -0.716000000     4.534000000     5.184000000
H    -1.030000000     4.905000000     4.359000000
H    -0.225000000     3.754000000     4.924000000
O    -1.857000000     5.364000000     2.929000000
H    -2.622000000     4.944000000     3.322000000
H    -1.570000000     4.751000000     2.251000000
O     2.605000000    -5.898000000     0.759000000
H     2.036000000    -5.209000000     1.103000000
H     2.215000000    -6.133000000    -0.083000000
O    -3.804000000     0.266000000     1.818000000
H    -3.360000000     1.020000000     2.207000000
H    -4.198000000     0.607000000     1.015000000
O    -1.333000000    -6.934000000    -1.769000000
H    -1.755000000    -7.785000000    -1.655000000
H    -1.864000000    -6.490000000    -2.431000000
O    -4.709000000     3.021000000     6.367000000
H    -4.308000000     3.023000000     5.498000000
H    -5.563000000     2.609000000     6.237000000
O    -3.722000000     3.415000000    -0.435000000
H    -3.030000000     3.201000000    -1.061000000
H    -3.254000000     3.683000000     0.356000000
O    -1.577000000    -4.443000000    -0.263000000
H    -1.742000000    -3.801000000    -0.955000000
H    -1.054000000    -5.123000000    -0.688000000
O    -0.797000000    -4.469000000     3.477000000
H    -1.706000000    -4.574000000     3.757000000
H    -0.569000000    -3.576000000     3.734000000
O    -0.411000000    -0.048000000    -4.116000000
H     0.531000000     0.084000000    -4.006000000
H    -0.739000000     0.804000000    -4.403000000
O     2.318000000     0.579000000    -4.821000000
H     2.369000000    -0.176000000    -5.407000000
H     3.108000000     0.520000000    -4.285000000
O    -2.307000000     6.685000000     0.083000000
H    -3.147000000     7.143000000     0.121000000
H    -2.056000000     6.567000000     0.999000000
O    -4.687000000     5.119000000    -2.344000000
H    -4.354000000     4.414000000    -1.790000000
H    -4.209000000     5.897000000    -2.056000000
O    -4.056000000    -2.676000000     1.687000000
H    -3.498000000    -2.958000000     0.962000000
H    -3.816000000    -1.761000000     1.832000000
O    -2.108000000     8.145000000     3.865000000
H    -2.750000000     7.675000000     4.396000000
H    -1.551000000     7.459000000     3.498000000
O     3.768000000    -1.972000000    -4.843000000
H     3.302000000    -1.882000000    -5.674000000
H     4.460000000    -2.608000000    -5.024000000
O    -0.300000000    -1.453000000     4.250000000
H     0.525000000    -0.969000000     4.297000000
H    -0.666000000    -1.388000000     5.133000000
O    -4.327000000    -0.835000000     4.536000000
H    -3.678000000    -0.827000000     3.832000000
H    -5.158000000    -1.007000000     4.093000000
O     4.258000000     3.774000000    -2.177000000
H     3.589000000     4.235000000    -2.684000000
H     3.987000000     2.856000000    -2.203000000
O     2.635000000     4.286000000    -4.382000000
H     2.410000000     3.866000000    -5.212000000
H     1.922000000     4.046000000    -3.791000000
O    -0.649000000     1.233000000     5.054000000
H     0.204000000     1.073000000     4.650000000
H    -1.198000000     1.551000000     4.337000000
O     0.792000000     2.524000000    -5.954000000
H     1.370000000     1.838000000    -5.620000000
H     0.080000000     2.568000000    -5.316000000
O     1.844000000    -4.731000000    -4.119000000
H     2.322000000    -3.902000000    -4.118000000
H     2.440000000    -5.351000000    -4.539000000
O     1.670000000    -3.555000000     1.785000000
H     0.955000000    -3.029000000     2.141000000
H     2.272000000    -2.915000000     1.406000000
O    -1.733000000     5.622000000    -2.325000000
H    -0.869000000     5.897000000    -2.634000000
H    -1.809000000     6.011000000    -1.453000000
