161
-3026.56052
C    -1.067000000     0.145000000    -0.945000000
H    -1.698000000     0.150000000    -1.830000000
C    -0.029000000    -0.817000000    -1.039000000
H    -0.001000000    -1.533000000    -1.856000000
C     0.948000000    -0.821000000    -0.009000000
C     1.982000000    -1.866000000    -0.160000000
H     2.406000000    -1.849000000    -1.166000000
H     2.853000000    -1.803000000     0.496000000
H     1.472000000    -2.815000000     0.019000000
C     0.886000000     0.128000000     0.994000000
H     1.608000000     0.171000000     1.805000000
C    -0.189000000     1.004000000     1.101000000
H    -0.320000000     1.738000000     1.892000000
C    -1.207000000     0.992000000     0.146000000
C    -2.281000000     2.104000000     0.163000000
O    -2.495000000     2.731000000     1.248000000
O    -2.869000000     2.342000000    -0.854000000
O    -1.649000000     3.009000000     6.448000000
H    -1.066000000     3.724000000     6.703000000
H    -1.539000000     2.938000000     5.500000000
O    -3.177000000     5.701000000     3.670000000
H    -3.934000000     5.440000000     3.145000000
H    -3.540000000     5.894000000     4.535000000
O     1.935000000     1.906000000    -1.602000000
H     2.742000000     2.396000000    -1.444000000
H     1.689000000     1.565000000    -0.742000000
O    -4.161000000     1.247000000    -3.038000000
H    -4.903000000     0.958000000    -2.508000000
H    -3.726000000     1.909000000    -2.500000000
O     1.726000000    -5.841000000    -0.120000000
H     2.361000000    -5.776000000     0.594000000
H     1.916000000    -6.683000000    -0.533000000
O     1.777000000    -2.127000000     5.545000000
H     1.956000000    -2.955000000     5.099000000
H     0.822000000    -2.076000000     5.583000000
O    -3.810000000    -1.432000000    -3.395000000
H    -3.024000000    -1.465000000    -3.940000000
H    -3.917000000    -0.505000000    -3.184000000
O     0.426000000     5.959000000     3.710000000
H     0.097000000     6.800000000     3.393000000
H     0.501000000     6.073000000     4.657000000
O    -5.392000000     2.060000000     0.126000000
H    -4.543000000     2.268000000    -0.264000000
H    -5.769000000     1.402000000    -0.458000000
O    -6.781000000     4.147000000     1.364000000
H    -6.099000000     3.625000000     0.941000000
H    -6.791000000     3.839000000     2.270000000
O    -3.633000000     1.396000000     3.371000000
H    -3.407000000     1.804000000     2.535000000
H    -2.790000000     1.161000000     3.759000000
O    -0.791000000     2.506000000    -2.634000000
H    -0.185000000     1.765000000    -2.611000000
H    -1.483000000     2.268000000    -2.017000000
O    -2.288000000    -2.415000000     0.192000000
H    -1.573000000    -1.860000000    -0.121000000
H    -1.946000000    -3.306000000     0.124000000
O     4.392000000     2.017000000     3.818000000
H     3.751000000     2.723000000     3.727000000
H     3.909000000     1.309000000     4.244000000
O     5.845000000    -1.247000000    -1.742000000
H     6.359000000    -2.019000000    -1.979000000
H     6.411000000    -0.506000000    -1.960000000
O     2.161000000     0.732000000    -3.938000000
H     2.076000000     0.962000000    -3.013000000
H     2.579000000    -0.129000000    -3.933000000
O     5.419000000     0.885000000     0.009000000
H     5.250000000     0.614000000     0.912000000
H     6.088000000     0.275000000    -0.303000000
O     3.076000000    -4.950000000    -2.352000000
H     2.622000000    -5.196000000    -1.546000000
H     3.766000000    -5.605000000    -2.448000000
O    -0.839000000    -1.537000000    -6.004000000
H    -0.897000000    -0.583000000    -6.058000000
H    -0.090000000    -1.763000000    -6.557000000
O     2.394000000     4.054000000     4.011000000
H     1.899000000     3.372000000     4.465000000
H     1.731000000     4.556000000     3.537000000
O    -6.245000000     0.039000000    -1.640000000
H    -7.043000000    -0.149000000    -2.133000000
H    -6.102000000    -0.743000000    -1.108000000
O     6.197000000     0.346000000     2.570000000
H     6.217000000    -0.360000000     3.216000000
H     5.784000000     1.079000000     3.028000000
O    -5.489000000     1.872000000     5.587000000
H    -5.152000000     1.912000000     4.692000000
H    -5.416000000     0.949000000     5.829000000
O     1.864000000     1.379000000     4.939000000
H     0.944000000     1.193000000     5.125000000
H     2.349000000     0.749000000     5.472000000
O    -2.000000000    -2.301000000     3.248000000
H    -2.927000000    -2.087000000     3.348000000
H    -1.804000000    -2.093000000     2.334000000
O    -2.040000000     5.299000000     1.240000000
H    -2.401000000     4.419000000     1.135000000
H    -2.100000000     5.471000000     2.180000000
O    -0.796000000    -5.084000000     0.620000000
H     0.090000000    -5.019000000     0.263000000
H    -0.748000000    -5.806000000     1.247000000
O    -5.353000000     5.620000000    -3.389000000
H    -5.713000000     6.442000000    -3.056000000
H    -4.731000000     5.341000000    -2.716000000
O     1.364000000    -4.273000000    -4.492000000
H     1.816000000    -4.458000000    -3.668000000
H     2.013000000    -4.461000000    -5.169000000
O     6.447000000    -2.994000000     2.938000000
H     5.597000000    -3.139000000     3.353000000
H     6.237000000    -2.784000000     2.028000000
O    -5.020000000    -1.948000000    -0.069000000
H    -4.122000000    -2.167000000     0.179000000
H    -5.254000000    -1.215000000     0.500000000
O    -3.449000000    -4.047000000    -2.827000000
H    -4.037000000    -3.319000000    -3.025000000
H    -2.675000000    -3.884000000    -3.366000000
O    -3.761000000     4.747000000    -1.356000000
H    -3.849000000     5.253000000    -0.548000000
H    -3.371000000     3.918000000    -1.079000000
O    -1.226000000    -3.426000000    -4.053000000
H    -1.119000000    -2.878000000    -4.831000000
H    -0.364000000    -3.821000000    -3.919000000
O     3.657000000    -1.594000000    -6.263000000
H     3.779000000    -1.395000000    -5.335000000
H     2.728000000    -1.812000000    -6.342000000
O     0.780000000     4.544000000    -3.019000000
H     0.738000000     3.607000000    -2.828000000
H    -0.135000000     4.815000000    -3.092000000
O     0.622000000     5.415000000    -0.016000000
H     0.456000000     5.353000000    -0.957000000
H    -0.224000000     5.223000000     0.389000000
O     3.518000000    -1.899000000    -3.532000000
H     3.225000000    -2.799000000    -3.674000000
H     4.115000000    -1.956000000    -2.786000000
O    -4.605000000     1.164000000    -5.879000000
H    -4.732000000     1.266000000    -4.936000000
H    -5.486000000     1.230000000    -6.248000000
O    -1.706000000    -5.941000000    -2.008000000
H    -1.414000000    -5.471000000    -1.227000000
H    -2.586000000    -5.604000000    -2.175000000
O     3.358000000    -6.203000000     2.109000000
H     4.268000000    -5.909000000     2.066000000
H     3.104000000    -6.063000000     3.022000000
O    -1.696000000     7.724000000    -0.152000000
H    -1.753000000     6.868000000     0.274000000
H    -2.059000000     8.335000000     0.489000000
O    -5.525000000    -0.064000000     1.953000000
H    -6.164000000     0.595000000     1.682000000
H    -4.928000000     0.406000000     2.535000000
O     0.194000000     1.622000000    -5.674000000
H     0.522000000     1.366000000    -6.536000000
H     0.872000000     1.333000000    -5.064000000
O     4.230000000     3.180000000    -0.253000000
H     4.600000000     2.304000000    -0.138000000
H     4.268000000     3.572000000     0.620000000
O     6.368000000    -3.148000000     0.211000000
H     5.969000000    -2.756000000    -0.566000000
H     5.979000000    -4.021000000     0.264000000
O    -1.043000000     3.372000000     3.672000000
H    -1.384000000     3.352000000     2.778000000
H    -0.673000000     4.250000000     3.767000000
O    -1.803000000     5.506000000    -3.487000000
H    -2.290000000     5.082000000    -2.779000000
H    -2.391000000     6.191000000    -3.805000000
