161
-3045.63652
C    -0.674000000    -1.057000000    -0.775000000
H    -1.271000000    -1.641000000    -1.471000000
C     0.543000000    -0.499000000    -1.173000000
H     0.962000000    -0.749000000    -2.145000000
C     1.123000000     0.443000000    -0.337000000
C     2.193000000     1.337000000    -0.811000000
H     3.044000000     0.694000000    -0.578000000
H     2.153000000     1.655000000    -1.856000000
H     2.236000000     2.256000000    -0.223000000
C     0.540000000     0.766000000     0.894000000
H     0.972000000     1.549000000     1.513000000
C    -0.571000000     0.051000000     1.344000000
H    -1.050000000     0.308000000     2.286000000
C    -1.256000000    -0.750000000     0.468000000
C    -2.623000000    -1.268000000     0.829000000
O    -2.973000000    -1.304000000     2.026000000
O    -3.354000000    -1.783000000     0.014000000
O    -6.269000000    -3.331000000    -0.327000000
H    -5.742000000    -3.865000000    -0.921000000
H    -7.094000000    -3.809000000    -0.241000000
O    -1.500000000     2.434000000    -1.147000000
H    -0.907000000     1.775000000    -0.786000000
H    -2.342000000     2.252000000    -0.729000000
O    -7.846000000    -2.179000000     1.882000000
H    -8.319000000    -1.538000000     2.413000000
H    -7.133000000    -1.680000000     1.484000000
O    -2.207000000    -3.417000000    -4.369000000
H    -2.795000000    -2.823000000    -3.904000000
H    -1.402000000    -3.412000000    -3.852000000
O     7.958000000    -0.622000000    -0.777000000
H     8.008000000    -0.424000000    -1.712000000
H     7.166000000    -0.175000000    -0.479000000
O    -5.063000000    -6.770000000     0.781000000
H    -4.913000000    -5.826000000     0.819000000
H    -5.935000000    -6.889000000     1.158000000
O    -5.313000000    -5.058000000    -2.414000000
H    -4.575000000    -5.312000000    -1.860000000
H    -5.839000000    -5.854000000    -2.491000000
O    -6.679000000    -1.308000000    -2.233000000
H    -6.859000000    -1.792000000    -1.427000000
H    -6.769000000    -1.960000000    -2.928000000
O    -3.664000000     1.093000000     3.303000000
H    -3.479000000     0.320000000     2.769000000
H    -2.979000000     1.091000000     3.971000000
O     3.359000000    -3.365000000    -4.048000000
H     3.083000000    -2.640000000    -4.609000000
H     4.023000000    -2.984000000    -3.473000000
O    -7.006000000     2.054000000     0.702000000
H    -6.792000000     1.121000000     0.726000000
H    -7.886000000     2.107000000     1.075000000
O     4.041000000     4.640000000    -1.421000000
H     3.217000000     4.409000000    -1.850000000
H     3.824000000     5.397000000    -0.876000000
O    -0.652000000    -2.893000000     2.675000000
H    -0.601000000    -2.967000000     3.628000000
H    -1.206000000    -2.127000000     2.524000000
O     5.649000000     0.677000000     0.122000000
H     5.389000000     1.209000000     0.875000000
H     5.372000000    -0.210000000     0.349000000
O    -4.209000000    -4.942000000     4.299000000
H    -4.792000000    -5.342000000     4.944000000
H    -4.790000000    -4.430000000     3.736000000
O     6.378000000     3.722000000     0.284000000
H     6.383000000     4.345000000    -0.442000000
H     5.515000000     3.828000000     0.684000000
O    -0.989000000    -0.328000000    -6.621000000
H    -1.303000000    -1.212000000    -6.814000000
H    -1.345000000    -0.131000000    -5.755000000
O     3.625000000     0.337000000    -4.026000000
H     3.736000000     0.917000000    -3.273000000
H     3.176000000     0.874000000    -4.679000000
O     2.645000000    -3.066000000     3.526000000
H     3.056000000    -2.204000000     3.598000000
H     2.067000000    -2.993000000     2.767000000
O     4.774000000    -1.923000000     0.250000000
H     3.972000000    -2.328000000     0.580000000
H     5.462000000    -2.242000000     0.835000000
O     3.174000000     1.443000000     5.619000000
H     3.731000000     2.210000000     5.483000000
H     3.520000000     1.033000000     6.411000000
O     0.998000000     0.467000000     6.444000000
H     1.702000000     0.947000000     6.007000000
H     0.903000000     0.901000000     7.292000000
O     1.357000000    -2.621000000     0.941000000
H     0.561000000    -2.762000000     1.454000000
H     1.087000000    -2.033000000     0.236000000
O    -2.713000000     4.560000000     0.825000000
H    -3.398000000     4.052000000     1.260000000
H    -1.909000000     4.327000000     1.290000000
O     3.959000000     4.358000000     2.326000000
H     3.967000000     5.082000000     1.701000000
H     3.337000000     4.629000000     3.001000000
O     5.415000000    -2.034000000    -2.453000000
H     5.202000000    -2.133000000    -1.525000000
H     5.268000000    -1.105000000    -2.634000000
O    -5.893000000    -0.359000000     0.670000000
H    -6.190000000    -0.419000000    -0.238000000
H    -5.082000000    -0.868000000     0.691000000
O    -1.800000000    -5.422000000    -1.610000000
H    -1.193000000    -4.957000000    -2.185000000
H    -1.709000000    -6.342000000    -1.860000000
O    -3.803000000    -4.502000000    -0.192000000
H    -2.983000000    -4.781000000    -0.599000000
H    -3.642000000    -3.598000000     0.078000000
O    -2.299000000     0.057000000    -4.436000000
H    -2.847000000     0.759000000    -4.786000000
H    -2.847000000    -0.369000000    -3.777000000
O    -4.732000000     3.045000000     1.910000000
H    -5.600000000     2.754000000     1.632000000
H    -4.423000000     2.351000000     2.494000000
O     1.649000000     5.174000000    -2.431000000
H     0.717000000     4.987000000    -2.321000000
H     1.888000000     4.729000000    -3.244000000
O     0.710000000    -4.616000000    -2.985000000
H     1.353000000    -4.290000000    -3.615000000
H     1.227000000    -5.100000000    -2.342000000
O     0.891000000     1.579000000    -4.583000000
H     0.280000000     1.190000000    -3.958000000
H     0.902000000     0.968000000    -5.320000000
O    -2.361000000    -3.040000000     5.938000000
H    -1.463000000    -3.368000000     5.994000000
H    -2.687000000    -3.375000000     5.103000000
O    -0.789000000     3.707000000     2.469000000
H    -0.530000000     3.462000000     3.358000000
H    -0.036000000     4.187000000     2.124000000
O     3.340000000     6.435000000     0.544000000
H     3.500000000     7.047000000     1.263000000
H     2.439000000     6.140000000     0.677000000
O    -3.970000000    -1.425000000    -2.576000000
H    -4.857000000    -1.066000000    -2.542000000
H    -3.756000000    -1.620000000    -1.664000000
O     4.840000000     1.865000000     2.313000000
H     4.390000000     1.480000000     3.065000000
H     4.719000000     2.809000000     2.420000000
O     4.102000000    -0.749000000     3.985000000
H     5.003000000    -0.463000000     3.835000000
H     3.705000000    -0.038000000     4.488000000
O    -1.376000000     4.911000000    -2.594000000
H    -1.673000000     4.134000000    -2.120000000
H    -1.941000000     5.616000000    -2.276000000
O    -6.047000000    -2.093000000     5.192000000
H    -5.165000000    -2.220000000     5.543000000
H    -5.948000000    -2.212000000     4.248000000
O    -5.257000000    -2.660000000     2.548000000
H    -5.793000000    -3.094000000     1.884000000
H    -4.521000000    -2.293000000     2.059000000
O     2.025000000     3.830000000    -4.663000000
H     1.548000000     3.001000000    -4.681000000
H     2.322000000     3.956000000    -5.565000000
O    -0.873000000     3.143000000     5.295000000
H    -1.104000000     2.243000000     5.525000000
H     0.018000000     3.254000000     5.628000000
O     4.787000000     1.977000000    -1.991000000
H     5.110000000     1.524000000    -1.212000000
H     4.669000000     2.884000000    -1.709000000
O    -0.470000000    -5.438000000     0.997000000
H    -1.361000000    -5.749000000     0.834000000
H    -0.585000000    -4.549000000     1.334000000
O    -1.794000000     0.123000000     5.721000000
H    -2.000000000    -0.810000000     5.770000000
H    -0.844000000     0.164000000     5.829000000
