161
-3070.48600
C    -0.137000000     1.456000000     0.399000000
H    -0.170000000     2.532000000     0.552000000
C    -0.107000000     0.858000000    -0.892000000
H    -0.091000000     1.542000000    -1.737000000
C    -0.076000000    -0.501000000    -1.134000000
C    -0.026000000    -0.954000000    -2.572000000
H     0.982000000    -0.796000000    -2.961000000
H    -0.246000000    -2.020000000    -2.662000000
H    -0.772000000    -0.424000000    -3.167000000
C    -0.049000000    -1.386000000    -0.051000000
H     0.072000000    -2.448000000    -0.250000000
C    -0.044000000    -0.851000000     1.249000000
H    -0.037000000    -1.522000000     2.104000000
C    -0.057000000     0.528000000     1.485000000
C     0.199000000     1.144000000     2.841000000
O     0.196000000     0.458000000     3.838000000
O     0.366000000     2.383000000     2.962000000
O    -3.616000000     2.027000000    -3.065000000
H    -3.217000000     1.802000000    -2.224000000
H    -3.413000000     2.954000000    -3.186000000
O    -1.327000000     2.900000000     6.603000000
H    -1.162000000     1.973000000     6.433000000
H    -0.606000000     3.171000000     7.172000000
O    -1.083000000    -0.849000000    -6.847000000
H    -0.533000000    -1.473000000    -6.373000000
H    -1.502000000    -0.330000000    -6.160000000
O    -3.382000000     4.044000000     5.226000000
H    -2.798000000     4.282000000     4.506000000
H    -2.916000000     3.350000000     5.692000000
O    -1.715000000    -2.457000000     3.954000000
H    -2.616000000    -2.326000000     4.249000000
H    -1.185000000    -2.337000000     4.743000000
O    -3.486000000    -4.428000000    -5.343000000
H    -3.372000000    -4.676000000    -4.425000000
H    -4.362000000    -4.740000000    -5.568000000
O    -3.412000000     0.927000000    -0.519000000
H    -2.556000000     0.819000000    -0.103000000
H    -3.788000000     0.046000000    -0.524000000
O     2.325000000    -4.162000000    -4.562000000
H     1.627000000    -4.263000000    -3.915000000
H     2.958000000    -3.580000000    -4.141000000
O    -2.180000000     1.335000000    -5.306000000
H    -2.843000000     1.463000000    -4.628000000
H    -2.421000000     1.953000000    -5.996000000
O    -4.493000000     0.490000000    -7.228000000
H    -4.013000000     0.417000000    -6.403000000
H    -4.639000000    -0.416000000    -7.501000000
O     1.755000000     1.917000000     8.079000000
H     2.590000000     2.227000000     8.429000000
H     1.729000000     2.258000000     7.185000000
O    -0.812000000    -3.746000000    -5.526000000
H    -1.743000000    -3.938000000    -5.641000000
H    -0.635000000    -3.960000000    -4.610000000
O     3.672000000    -1.781000000    -3.698000000
H     4.191000000    -1.988000000    -4.476000000
H     3.583000000    -0.828000000    -3.717000000
O     3.740000000    -3.969000000     1.784000000
H     4.289000000    -3.616000000     2.484000000
H     4.337000000    -4.500000000     1.256000000
O    -4.880000000     1.681000000     3.059000000
H    -4.124000000     1.107000000     3.182000000
H    -5.114000000     1.960000000     3.944000000
O    -0.945000000    -5.258000000    -0.599000000
H    -1.458000000    -4.786000000     0.057000000
H    -1.228000000    -6.168000000    -0.516000000
O    -2.894000000    -5.109000000    -2.681000000
H    -3.265000000    -5.985000000    -2.782000000
H    -1.971000000    -5.260000000    -2.479000000
O    -0.216000000     6.340000000     2.025000000
H    -0.140000000     7.253000000     1.746000000
H     0.394000000     5.866000000     1.459000000
O     1.116000000    -4.746000000     1.303000000
H     1.206000000    -4.881000000     0.359000000
H     2.011000000    -4.603000000     1.611000000
O     4.189000000     3.232000000    -2.442000000
H     3.601000000     3.981000000    -2.532000000
H     5.004000000     3.516000000    -2.855000000
O    -0.611000000     0.246000000     6.393000000
H    -0.363000000    -0.666000000     6.548000000
H    -0.367000000     0.409000000     5.482000000
O     0.019000000    -4.919000000    -3.137000000
H     0.039000000    -4.822000000    -2.185000000
H     0.358000000    -5.800000000    -3.295000000
O     0.756000000     1.148000000    -6.941000000
H     1.488000000     1.044000000    -7.548000000
H     0.221000000     0.366000000    -7.074000000
O     0.184000000     2.050000000    -4.413000000
H     0.592000000     1.823000000    -5.249000000
H    -0.699000000     1.685000000    -4.470000000
O     1.294000000    -2.824000000    -6.799000000
H     1.986000000    -3.357000000    -6.409000000
H     0.511000000    -3.040000000    -6.293000000
O     1.816000000     5.093000000    -0.282000000
H     1.907000000     6.036000000    -0.414000000
H     1.788000000     4.728000000    -1.166000000
O     1.686000000     5.782000000     4.717000000
H     1.307000000     6.218000000     3.953000000
H     1.298000000     6.235000000     5.467000000
O     1.858000000     3.006000000     5.422000000
H     1.929000000     3.946000000     5.255000000
H     1.193000000     2.702000000     4.805000000
O     3.214000000    -0.491000000    -6.355000000
H     3.064000000     0.229000000    -5.742000000
H     2.710000000    -1.221000000    -5.995000000
O    -4.558000000    -1.579000000    -0.204000000
H    -4.818000000    -1.436000000     0.706000000
H    -4.709000000    -2.513000000    -0.352000000
O     2.337000000    -2.936000000     6.614000000
H     2.514000000    -2.545000000     5.759000000
H     2.272000000    -2.190000000     7.210000000
O     3.179000000    -4.591000000    -1.273000000
H     4.012000000    -4.491000000    -1.734000000
H     3.018000000    -3.732000000    -0.882000000
O    -0.259000000    -2.436000000     6.580000000
H     0.682000000    -2.609000000     6.591000000
H    -0.663000000    -3.303000000     6.612000000
O    -1.689000000     4.356000000     3.131000000
H    -1.087000000     5.058000000     2.885000000
H    -1.175000000     3.554000000     3.030000000
O    -5.150000000    -0.368000000    -2.701000000
H    -4.894000000    -0.687000000    -1.835000000
H    -4.694000000     0.468000000    -2.793000000
O     2.173000000    -0.760000000     7.994000000
H     3.070000000    -0.506000000     8.207000000
H     1.742000000     0.060000000     7.752000000
O    -2.712000000     0.290000000     3.421000000
H    -2.375000000    -0.602000000     3.504000000
H    -2.037000000     0.839000000     3.820000000
O    -4.445000000    -4.675000000    -0.297000000
H    -3.808000000    -4.685000000    -1.011000000
H    -3.915000000    -4.736000000     0.498000000
O     5.043000000     2.607000000     2.303000000
H     5.339000000     2.918000000     1.447000000
H     4.131000000     2.891000000     2.359000000
O     1.722000000     4.545000000    -2.962000000
H     2.128000000     5.223000000    -3.502000000
H     1.119000000     4.096000000    -3.555000000
O     2.042000000    -1.567000000     4.251000000
H     2.366000000    -1.407000000     3.364000000
H     1.301000000    -0.969000000     4.346000000
O    -0.041000000    -5.761000000     3.769000000
H    -0.195000000    -6.645000000     3.435000000
H     0.566000000    -5.370000000     3.141000000
O    -1.658000000    -3.854000000     1.725000000
H    -1.702000000    -3.273000000     2.484000000
H    -0.766000000    -4.202000000     1.742000000
O     2.575000000     3.369000000     2.145000000
H     2.502000000     3.845000000     1.317000000
H     1.700000000     3.010000000     2.293000000
O     4.485000000     2.423000000     6.309000000
H     3.640000000     2.713000000     5.965000000
H     4.804000000     1.794000000     5.662000000
O     5.174000000    -1.734000000    -1.237000000
H     4.970000000    -0.835000000    -0.981000000
H     4.790000000    -1.829000000    -2.108000000
O     2.915000000     0.997000000    -3.810000000
H     2.024000000     1.336000000    -3.725000000
H     3.455000000     1.618000000    -3.322000000
O    -3.646000000    -1.678000000    -4.561000000
H    -4.315000000    -1.229000000    -4.044000000
H    -3.398000000    -2.433000000    -4.028000000
