161
-3060.86146
C    -0.260000000     1.431000000     0.056000000
H    -0.450000000     2.491000000    -0.094000000
C    -0.219000000     0.632000000    -1.037000000
H    -0.333000000     1.138000000    -1.993000000
C     0.041000000    -0.744000000    -0.950000000
C     0.026000000    -1.518000000    -2.233000000
H     0.058000000    -0.909000000    -3.138000000
H     0.843000000    -2.241000000    -2.281000000
H    -0.903000000    -2.087000000    -2.303000000
C     0.453000000    -1.285000000     0.213000000
H     0.757000000    -2.328000000     0.250000000
C     0.408000000    -0.442000000     1.400000000
H     0.701000000    -0.899000000     2.342000000
C    -0.104000000     0.875000000     1.316000000
C    -0.252000000     1.730000000     2.496000000
O    -0.245000000     1.243000000     3.622000000
O    -0.515000000     2.908000000     2.339000000
O    -5.493000000     3.657000000     0.221000000
H    -5.760000000     2.929000000    -0.342000000
H    -4.660000000     3.374000000     0.598000000
O    -2.126000000    -1.135000000    -5.181000000
H    -2.250000000    -2.049000000    -5.438000000
H    -1.260000000    -0.907000000    -5.519000000
O    -2.401000000     3.352000000     4.427000000
H    -1.752000000     2.922000000     3.870000000
H    -2.047000000     3.273000000     5.313000000
O    -3.507000000    -3.543000000    -4.605000000
H    -3.530000000    -3.358000000    -3.666000000
H    -4.428000000    -3.603000000    -4.860000000
O    -5.001000000     1.032000000     2.610000000
H    -5.464000000     0.223000000     2.829000000
H    -4.486000000     0.811000000     1.834000000
O    -1.546000000    -4.941000000     0.683000000
H    -2.467000000    -5.122000000     0.495000000
H    -1.485000000    -3.986000000     0.684000000
O    -5.164000000     2.875000000     4.595000000
H    -4.279000000     3.140000000     4.343000000
H    -5.473000000     2.344000000     3.862000000
O     0.763000000     3.750000000     7.926000000
H     1.537000000     3.293000000     8.253000000
H     0.723000000     3.521000000     6.998000000
O     2.749000000    -4.258000000    -3.642000000
H     2.766000000    -3.355000000    -3.959000000
H     3.656000000    -4.556000000    -3.721000000
O    -2.545000000    -2.166000000     0.983000000
H    -2.767000000    -1.376000000     0.491000000
H    -3.376000000    -2.457000000     1.358000000
O    -1.272000000     4.379000000    -2.473000000
H    -1.097000000     4.504000000    -1.540000000
H    -1.387000000     5.266000000    -2.816000000
O     4.143000000     3.348000000    -2.684000000
H     3.907000000     3.804000000    -3.492000000
H     3.324000000     2.955000000    -2.383000000
O    -3.645000000     2.899000000    -3.552000000
H    -2.855000000     3.354000000    -3.260000000
H    -3.417000000     1.971000000    -3.511000000
O     2.091000000    -0.175000000     4.703000000
H     1.232000000     0.246000000     4.670000000
H     2.469000000    -0.013000000     3.839000000
O     0.511000000    -5.676000000    -4.498000000
H     0.307000000    -5.938000000    -3.600000000
H     1.371000000    -5.261000000    -4.436000000
O     3.371000000    -0.776000000     2.380000000
H     3.805000000    -1.463000000     2.886000000
H     3.211000000    -1.173000000     1.524000000
O     4.221000000     4.719000000     2.067000000
H     5.084000000     4.710000000     1.652000000
H     3.816000000     3.896000000     1.795000000
O    -2.704000000     5.724000000     2.974000000
H    -2.717000000     5.265000000     3.814000000
H    -1.777000000     5.763000000     2.737000000
O    -0.946000000    -5.701000000    -1.912000000
H    -1.277000000    -6.542000000    -1.598000000
H    -1.206000000    -5.074000000    -1.237000000
O     1.075000000     2.664000000     5.403000000
H     1.930000000     2.349000000     5.108000000
H     0.465000000     2.365000000     4.729000000
O     4.389000000    -3.002000000     3.815000000
H     3.914000000    -3.783000000     3.533000000
H     4.187000000    -2.923000000     4.747000000
O     0.927000000    -6.607000000     0.941000000
H     1.322000000    -5.972000000     0.344000000
H     0.514000000    -6.073000000     1.620000000
O    -1.132000000    -2.585000000     3.441000000
H    -1.261000000    -2.138000000     2.605000000
H    -1.960000000    -3.039000000     3.600000000
O    -0.234000000    -5.792000000     3.121000000
H     0.228000000    -5.133000000     3.639000000
H    -0.820000000    -5.286000000     2.558000000
O    -1.310000000     5.458000000     0.293000000
H    -0.500000000     5.965000000     0.334000000
H    -2.005000000     6.115000000     0.310000000
O    -5.104000000    -0.984000000     5.073000000
H    -4.357000000    -0.451000000     4.801000000
H    -4.795000000    -1.452000000     5.848000000
O     2.097000000     0.839000000    -3.389000000
H     1.792000000     1.699000000    -3.102000000
H     1.330000000     0.272000000    -3.304000000
O     5.137000000     1.294000000    -0.734000000
H     5.260000000     1.622000000    -1.625000000
H     4.742000000     0.430000000    -0.849000000
O    -2.857000000     3.189000000     0.849000000
H    -2.500000000     4.042000000     0.602000000
H    -2.137000000     2.749000000     1.300000000
O    -1.719000000     2.379000000     6.724000000
H    -2.490000000     1.947000000     7.093000000
H    -1.006000000     1.756000000     6.862000000
O     3.464000000     2.240000000     1.192000000
H     3.635000000     1.633000000     1.911000000
H     3.789000000     1.788000000     0.414000000
O     0.758000000    -0.419000000    -6.124000000
H     0.531000000    -0.869000000    -6.938000000
H     1.372000000     0.265000000    -6.391000000
O     0.463000000    -0.093000000     7.217000000
H     0.970000000     0.162000000     7.988000000
H     0.949000000     0.274000000     6.479000000
O    -1.142000000    -2.275000000     7.334000000
H    -0.617000000    -3.065000000     7.206000000
H    -0.503000000    -1.563000000     7.361000000
O    -2.736000000     0.207000000     4.399000000
H    -3.215000000     0.980000000     4.099000000
H    -1.825000000     0.496000000     4.453000000
O    -3.297000000     0.185000000    -0.012000000
H    -3.822000000     0.704000000    -0.621000000
H    -2.455000000     0.639000000     0.026000000
O    -4.035000000    -3.157000000    -1.946000000
H    -4.759000000    -2.714000000    -1.503000000
H    -4.114000000    -4.072000000    -1.676000000
O     3.536000000    -0.926000000    -0.684000000
H     2.660000000    -0.715000000    -1.006000000
H     3.437000000    -1.780000000    -0.264000000
O     1.150000000     3.453000000    -3.092000000
H     0.209000000     3.595000000    -2.987000000
H     1.501000000     4.320000000    -3.293000000
O     1.248000000    -3.376000000     4.153000000
H     1.792000000    -2.595000000     4.054000000
H     0.365000000    -3.084000000     3.928000000
O     2.938000000    -1.491000000    -4.558000000
H     3.218000000    -0.688000000    -4.118000000
H     2.139000000    -1.243000000    -5.023000000
O     0.214000000     5.384000000     3.199000000
H     1.168000000     5.360000000     3.122000000
H    -0.080000000     4.571000000     2.788000000
O     2.599000000    -2.204000000     6.541000000
H     2.521000000    -1.517000000     5.880000000
H     1.841000000    -2.769000000     6.390000000
O     1.792000000    -4.945000000    -1.140000000
H     2.387000000    -4.592000000    -1.801000000
H     0.966000000    -5.075000000    -1.605000000
O     2.884000000     1.842000000    -6.232000000
H     2.348000000     2.484000000    -5.765000000
H     3.141000000     1.211000000    -5.560000000
O     3.275000000    -3.266000000     0.617000000
H     2.702000000    -3.872000000     0.147000000
H     3.897000000    -3.831000000     1.075000000
O    -0.661000000     6.511000000     5.774000000
H    -1.411000000     6.382000000     6.354000000
H    -0.680000000     5.756000000     5.186000000
O    -2.789000000     0.348000000    -3.153000000
H    -2.547000000    -0.375000000    -3.732000000
H    -2.887000000    -0.057000000    -2.291000000
