161
-3020.70974
C     0.518000000     0.852000000     1.033000000
H     1.067000000     1.536000000     1.674000000
C     1.021000000     0.804000000    -0.245000000
H     1.939000000     1.318000000    -0.518000000
C     0.401000000     0.004000000    -1.156000000
C     1.017000000    -0.053000000    -2.488000000
H     0.561000000     0.777000000    -3.030000000
H     2.100000000     0.084000000    -2.494000000
H     0.829000000    -0.977000000    -3.039000000
C    -0.699000000    -0.801000000    -0.766000000
H    -1.094000000    -1.577000000    -1.415000000
C    -1.128000000    -0.834000000     0.533000000
H    -1.988000000    -1.483000000     0.673000000
C    -0.610000000     0.071000000     1.469000000
C    -1.158000000     0.092000000     2.900000000
O    -2.003000000    -0.798000000     3.238000000
O    -0.770000000     0.988000000     3.632000000
O    -1.510000000     3.068000000    -2.162000000
H    -2.056000000     2.402000000    -2.580000000
H    -2.123000000     3.595000000    -1.650000000
O     1.540000000     2.921000000    -4.337000000
H     1.090000000     2.281000000    -3.784000000
H     1.173000000     3.765000000    -4.074000000
O     1.438000000    -3.744000000    -6.048000000
H     2.370000000    -3.775000000    -6.266000000
H     1.099000000    -4.595000000    -6.325000000
O    -5.353000000     2.105000000     3.625000000
H    -5.093000000     1.252000000     3.278000000
H    -4.607000000     2.386000000     4.155000000
O    -4.536000000    -0.170000000     2.425000000
H    -4.982000000    -1.002000000     2.582000000
H    -3.663000000    -0.292000000     2.799000000
O    -3.197000000     0.133000000     7.202000000
H    -3.125000000    -0.780000000     6.922000000
H    -2.559000000     0.600000000     6.662000000
O    -3.883000000    -2.155000000    -4.476000000
H    -3.007000000    -2.516000000    -4.616000000
H    -3.970000000    -2.102000000    -3.524000000
O    -3.415000000     1.426000000    -2.920000000
H    -4.336000000     1.369000000    -3.173000000
H    -3.419000000     1.306000000    -1.971000000
O    -0.569000000     1.153000000    -6.457000000
H     0.183000000     0.758000000    -6.016000000
H    -0.315000000     2.066000000    -6.593000000
O    -2.046000000    -5.215000000    -3.704000000
H    -1.208000000    -5.137000000    -3.249000000
H    -2.084000000    -6.131000000    -3.980000000
O    -4.232000000    -2.168000000    -1.609000000
H    -5.167000000    -2.360000000    -1.540000000
H    -4.130000000    -1.320000000    -1.176000000
O     0.629000000    -4.898000000     1.448000000
H    -0.280000000    -4.623000000     1.331000000
H     1.066000000    -4.637000000     0.638000000
O     1.800000000     0.438000000     4.237000000
H     0.881000000     0.655000000     4.076000000
H     2.228000000     1.286000000     4.359000000
O    -2.334000000    -3.693000000    -0.817000000
H    -1.520000000    -3.430000000    -1.246000000
H    -3.020000000    -3.231000000    -1.301000000
O     4.032000000     3.790000000     0.711000000
H     3.991000000     3.780000000     1.668000000
H     3.245000000     4.265000000     0.443000000
O     1.728000000     4.987000000     3.287000000
H     2.320000000     5.706000000     3.068000000
H     0.896000000     5.229000000     2.880000000
O     0.630000000     4.802000000    -2.646000000
H    -0.103000000     4.289000000    -2.306000000
H     0.226000000     5.432000000    -3.242000000
O     0.347000000    -4.024000000     4.134000000
H     0.596000000    -4.920000000     3.905000000
H     1.049000000    -3.481000000     3.776000000
O     5.772000000     1.668000000     0.220000000
H     6.546000000     1.973000000     0.694000000
H     5.095000000     2.311000000     0.429000000
O    -2.834000000    -2.555000000     6.770000000
H    -2.816000000    -2.774000000     5.838000000
H    -3.648000000    -2.943000000     7.091000000
O     0.453000000    -4.538000000    -2.712000000
H     1.048000000    -4.036000000    -2.157000000
H     0.924000000    -5.351000000    -2.895000000
O     3.828000000     1.103000000    -4.483000000
H     3.050000000     1.660000000    -4.500000000
H     3.483000000     0.210000000    -4.476000000
O     2.761000000    -1.414000000     0.810000000
H     2.238000000    -0.660000000     0.537000000
H     3.603000000    -1.292000000     0.371000000
O     2.029000000     5.610000000    -0.090000000
H     1.426000000     6.068000000     0.496000000
H     1.497000000     5.384000000    -0.853000000
O    -3.329000000     2.796000000    -5.003000000
H    -3.438000000     2.040000000    -5.581000000
H    -3.286000000     2.420000000    -4.124000000
O    -0.769000000     0.267000000     6.126000000
H    -0.933000000     0.304000000     5.184000000
H    -0.325000000    -0.571000000     6.260000000
O     4.695000000    -3.090000000    -3.213000000
H     5.092000000    -2.254000000    -2.969000000
H     4.121000000    -2.877000000    -3.949000000
O    -5.621000000    -3.564000000     3.846000000
H    -6.271000000    -3.055000000     4.330000000
H    -4.786000000    -3.146000000     4.055000000
O    -3.772000000     0.332000000    -0.286000000
H    -2.897000000    -0.004000000    -0.092000000
H    -4.201000000     0.389000000     0.568000000
O    -2.368000000    -3.557000000     3.666000000
H    -1.524000000    -4.007000000     3.629000000
H    -2.159000000    -2.641000000     3.487000000
O    -0.625000000     3.638000000     4.647000000
H     0.304000000     3.867000000     4.648000000
H    -0.673000000     2.833000000     4.131000000
O    -1.386000000     3.435000000     7.919000000
H    -1.350000000     3.185000000     6.996000000
H    -0.583000000     3.936000000     8.063000000
O     2.770000000    -1.226000000    -5.529000000
H     3.321000000    -0.974000000    -6.270000000
H     2.205000000    -1.917000000    -5.875000000
O     1.650000000     1.110000000     7.245000000
H     1.854000000     1.791000000     6.603000000
H     0.705000000     0.983000000     7.166000000
O    -2.861000000     2.185000000     4.884000000
H    -2.108000000     1.982000000     4.329000000
H    -2.813000000     3.132000000     5.015000000
O    -6.304000000    -2.476000000     1.152000000
H    -7.139000000    -2.923000000     1.012000000
H    -5.813000000    -3.062000000     1.728000000
O    -3.901000000    -5.901000000    -0.275000000
H    -3.319000000    -5.262000000    -0.687000000
H    -3.750000000    -5.791000000     0.664000000
O     5.564000000    -1.131000000     0.287000000
H     5.708000000    -0.232000000    -0.007000000
H     5.402000000    -1.053000000     1.227000000
O     2.118000000     3.509000000     5.501000000
H     2.125000000     4.042000000     4.706000000
H     2.252000000     4.136000000     6.212000000
O     0.299000000    -2.050000000     6.168000000
H     0.179000000    -2.717000000     5.491000000
H    -0.101000000    -2.428000000     6.951000000
O     4.092000000     4.668000000    -3.652000000
H     3.620000000     5.466000000    -3.890000000
H     3.404000000     4.037000000    -3.439000000
O     2.715000000    -2.457000000     3.721000000
H     2.296000000    -1.598000000     3.667000000
H     2.859000000    -2.711000000     2.809000000
O    -3.656000000    -5.836000000     2.884000000
H    -3.352000000    -4.936000000     3.000000000
H    -2.868000000    -6.370000000     2.988000000
O     2.157000000    -3.764000000    -0.641000000
H     2.227000000    -2.972000000    -0.109000000
H     3.057000000    -3.955000000    -0.907000000
O     5.888000000    -0.213000000    -3.426000000
H     5.287000000     0.406000000    -3.841000000
H     6.447000000     0.330000000    -2.871000000
O    -2.806000000     4.773000000     2.136000000
H    -3.257000000     5.211000000     2.858000000
H    -1.879000000     4.815000000     2.372000000
O    -1.263000000    -3.131000000    -5.364000000
H    -0.320000000    -3.073000000    -5.516000000
H    -1.361000000    -3.852000000    -4.742000000
O     1.726000000     3.180000000    -7.078000000
H     1.859000000     3.114000000    -6.133000000
H     2.394000000     3.801000000    -7.371000000
