161
-3020.69687
C    -0.523000000    -0.755000000     1.175000000
H    -1.129000000    -1.388000000     1.818000000
C    -1.293000000    -0.377000000     0.044000000
H    -2.292000000    -0.803000000     0.077000000
C    -0.758000000     0.448000000    -0.912000000
C    -1.487000000     0.853000000    -2.132000000
H    -1.309000000     0.178000000    -2.972000000
H    -2.518000000     0.960000000    -1.789000000
H    -1.166000000     1.865000000    -2.385000000
C     0.608000000     0.781000000    -0.842000000
H     1.047000000     1.410000000    -1.612000000
C     1.381000000     0.318000000     0.216000000
H     2.423000000     0.618000000     0.289000000
C     0.855000000    -0.505000000     1.213000000
C     1.806000000    -0.989000000     2.313000000
O     2.999000000    -1.034000000     2.242000000
O     1.351000000    -1.573000000     3.262000000
O    -4.864000000     3.474000000    -2.471000000
H    -4.481000000     3.550000000    -3.344000000
H    -5.445000000     2.715000000    -2.529000000
O    -4.187000000    -0.758000000     1.807000000
H    -3.794000000    -0.769000000     2.680000000
H    -5.079000000    -1.076000000     1.942000000
O     0.131000000     4.196000000     1.641000000
H    -0.269000000     3.803000000     0.865000000
H    -0.226000000     3.695000000     2.375000000
O    -1.397000000     2.227000000    -5.779000000
H    -0.549000000     2.657000000    -5.666000000
H    -1.990000000     2.712000000    -5.205000000
O    -6.543000000    -1.955000000     1.633000000
H    -5.980000000    -2.507000000     2.176000000
H    -7.358000000    -2.451000000     1.551000000
O    -3.004000000    -4.253000000     0.606000000
H    -3.221000000    -5.147000000     0.869000000
H    -3.521000000    -4.105000000    -0.186000000
O     4.542000000    -3.013000000     3.701000000
H     3.987000000    -2.552000000     3.072000000
H     4.032000000    -3.021000000     4.511000000
O    -0.514000000    -0.281000000     4.422000000
H    -0.679000000    -0.908000000     5.126000000
H     0.104000000    -0.727000000     3.843000000
O    -4.557000000     0.418000000     4.771000000
H    -4.868000000     0.090000000     5.615000000
H    -3.683000000     0.761000000     4.954000000
O     0.101000000     5.866000000    -2.907000000
H     0.484000000     6.331000000    -3.651000000
H    -0.389000000     5.145000000    -3.303000000
O     4.669000000    -3.503000000    -2.390000000
H     4.603000000    -3.120000000    -1.515000000
H     4.968000000    -2.783000000    -2.945000000
O     0.310000000    -2.569000000    -4.560000000
H     0.850000000    -2.953000000    -5.251000000
H     0.931000000    -2.353000000    -3.864000000
O    -5.906000000    -1.777000000    -1.405000000
H    -6.092000000    -1.886000000    -0.472000000
H    -6.215000000    -0.894000000    -1.609000000
O     6.130000000    -5.162000000     3.801000000
H     5.603000000    -4.365000000     3.747000000
H     6.939000000    -4.946000000     3.338000000
O     2.620000000    -0.015000000    -3.386000000
H     3.397000000     0.450000000    -3.075000000
H     2.425000000     0.384000000    -4.233000000
O     2.587000000     3.105000000     2.010000000
H     1.645000000     3.259000000     1.937000000
H     2.979000000     3.720000000     1.390000000
O     2.454000000    -4.237000000     0.088000000
H     2.020000000    -3.685000000    -0.563000000
H     2.735000000    -5.009000000    -0.402000000
O     0.760000000     3.411000000    -4.421000000
H     1.387000000     4.100000000    -4.203000000
H     1.278000000     2.753000000    -4.884000000
O    -4.135000000     0.413000000    -6.099000000
H    -3.292000000     0.814000000    -6.311000000
H    -3.970000000    -0.529000000    -6.146000000
O     2.083000000     2.204000000     5.144000000
H     1.137000000     2.350000000     5.119000000
H     2.176000000     1.258000000     5.250000000
O     3.189000000    -0.228000000     7.168000000
H     2.910000000    -1.017000000     6.704000000
H     3.111000000    -0.455000000     8.095000000
O    -1.951000000    -2.107000000     6.059000000
H    -2.722000000    -2.284000000     5.520000000
H    -2.182000000    -1.322000000     6.556000000
O    -5.925000000     1.542000000    -4.027000000
H    -6.282000000     0.753000000    -3.619000000
H    -5.454000000     1.221000000    -4.796000000
O    -2.013000000    -3.463000000    -4.107000000
H    -1.325000000    -2.943000000    -4.523000000
H    -2.591000000    -3.716000000    -4.827000000
O     4.389000000     3.040000000    -0.911000000
H     4.668000000     2.163000000    -0.647000000
H     4.026000000     2.922000000    -1.788000000
O     5.424000000     0.695000000     5.479000000
H     4.916000000     0.819000000     4.678000000
H     4.851000000     0.184000000     6.050000000
O     4.329000000    -2.236000000     0.157000000
H     3.648000000    -2.909000000     0.141000000
H     4.060000000    -1.639000000     0.855000000
O     6.125000000     3.770000000     1.951000000
H     5.442000000     4.319000000     1.567000000
H     5.761000000     2.884000000     1.930000000
O     2.325000000    -2.233000000     5.528000000
H     1.970000000    -2.077000000     4.653000000
H     1.633000000    -2.710000000     5.986000000
O     1.416000000    -2.255000000    -1.706000000
H     1.858000000    -1.453000000    -1.984000000
H     0.541000000    -1.969000000    -1.445000000
O    -0.794000000     2.170000000     3.213000000
H    -0.655000000     1.291000000     3.564000000
H    -1.695000000     2.160000000     2.890000000
O    -5.314000000    -3.684000000     3.528000000
H    -5.684000000    -4.386000000     2.993000000
H    -4.392000000    -3.648000000     3.272000000
O    -4.087000000    -3.572000000    -1.960000000
H    -3.542000000    -3.246000000    -2.677000000
H    -4.724000000    -2.874000000    -1.807000000
O    -1.250000000    -4.625000000    -1.736000000
H    -1.504000000    -4.349000000    -2.616000000
H    -2.017000000    -4.438000000    -1.195000000
O     4.458000000     1.032000000     2.886000000
H     3.882000000     1.736000000     2.587000000
H     3.989000000     0.228000000     2.663000000
O    -3.175000000     4.242000000    -0.278000000
H    -3.686000000     3.782000000    -0.944000000
H    -3.721000000     4.988000000    -0.030000000
O     3.936000000     3.641000000    -3.555000000
H     3.855000000     4.553000000    -3.835000000
H     4.617000000     3.276000000    -4.120000000
O     7.048000000    -2.289000000     0.122000000
H     6.201000000    -2.663000000    -0.120000000
H     6.909000000    -1.926000000     0.997000000
O    -2.618000000     4.275000000    -4.222000000
H    -2.363000000     4.992000000    -4.803000000
H    -2.939000000     4.709000000    -3.432000000
O    -1.220000000     0.884000000    -8.047000000
H    -0.386000000     0.442000000    -8.204000000
H    -1.092000000     1.354000000    -7.223000000
O     6.595000000    -1.441000000     2.579000000
H     6.265000000    -0.542000000     2.604000000
H     5.980000000    -1.936000000     3.120000000
O     1.189000000    -4.139000000     2.500000000
H     1.943000000    -4.147000000     1.910000000
H     1.111000000    -3.226000000     2.777000000
O    -3.644000000     2.549000000     3.280000000
H    -4.004000000     2.514000000     2.394000000
H    -3.885000000     3.417000000     3.603000000
O     3.768000000     5.232000000     0.539000000
H     2.919000000     5.649000000     0.395000000
H     3.953000000     4.773000000    -0.280000000
O    -2.461000000    -3.715000000     2.973000000
H    -2.556000000    -3.844000000     2.029000000
H    -1.516000000    -3.653000000     3.112000000
O    -4.353000000     1.750000000     0.666000000
H    -3.829000000     1.878000000    -0.124000000
H    -4.084000000     0.894000000     0.997000000
O     0.304000000    -3.845000000     6.612000000
H    -0.452000000    -3.360000000     6.282000000
H     0.390000000    -4.589000000     6.016000000
O     5.219000000     0.334000000    -0.716000000
H     4.855000000    -0.533000000    -0.536000000
H     5.816000000     0.195000000    -1.450000000
