161
-3033.99909
C    -0.941000000    -0.800000000     0.870000000
H    -1.752000000    -1.322000000     1.371000000
C    -1.231000000    -0.287000000    -0.376000000
H    -2.235000000    -0.347000000    -0.789000000
C    -0.315000000     0.543000000    -1.071000000
C    -0.594000000     1.135000000    -2.476000000
H    -1.406000000     1.852000000    -2.333000000
H     0.218000000     1.685000000    -2.956000000
H    -0.976000000     0.417000000    -3.205000000
C     0.960000000     0.678000000    -0.510000000
H     1.759000000     1.199000000    -1.031000000
C     1.263000000     0.159000000     0.729000000
H     2.272000000     0.229000000     1.127000000
C     0.381000000    -0.654000000     1.462000000
C     0.768000000    -1.320000000     2.741000000
O     1.899000000    -1.267000000     3.097000000
O    -0.071000000    -1.894000000     3.355000000
O    -3.964000000     2.667000000    -2.187000000
H    -4.545000000     3.097000000    -2.814000000
H    -3.647000000     1.890000000    -2.646000000
O     5.179000000     1.041000000    -1.749000000
H     5.805000000     1.111000000    -1.029000000
H     5.296000000     0.152000000    -2.084000000
O    -4.344000000    -1.204000000     2.612000000
H    -4.374000000    -1.814000000     3.349000000
H    -4.982000000    -1.551000000     1.988000000
O    -0.876000000     3.612000000    -7.977000000
H    -1.048000000     3.599000000    -7.036000000
H     0.071000000     3.496000000    -8.049000000
O     1.453000000     1.298000000     6.212000000
H     1.967000000     1.472000000     5.424000000
H     1.328000000     0.349000000     6.213000000
O    -6.065000000    -2.169000000     0.703000000
H    -6.688000000    -2.113000000     1.427000000
H    -6.339000000    -2.943000000     0.211000000
O     4.008000000    -5.306000000     6.195000000
H     3.384000000    -4.783000000     5.691000000
H     3.461000000    -5.834000000     6.777000000
O    -2.769000000    -4.215000000     0.806000000
H    -3.477000000    -3.661000000     0.478000000
H    -2.114000000    -4.207000000     0.108000000
O     3.757000000    -2.660000000     4.623000000
H     3.012000000    -2.541000000     4.033000000
H     4.311000000    -1.896000000     4.467000000
O    -2.914000000    -0.994000000     6.251000000
H    -2.140000000    -0.791000000     5.726000000
H    -3.109000000    -1.908000000     6.048000000
O     3.186000000     3.824000000    -5.996000000
H     3.966000000     4.373000000    -5.910000000
H     3.412000000     3.014000000    -5.539000000
O     0.313000000     4.579000000    -3.453000000
H    -0.043000000     3.779000000    -3.840000000
H    -0.097000000     4.630000000    -2.589000000
O    -1.456000000     2.999000000    -4.955000000
H    -2.063000000     3.596000000    -4.519000000
H    -1.909000000     2.156000000    -4.958000000
O    -2.367000000     0.362000000    -5.406000000
H    -3.079000000    -0.097000000    -4.959000000
H    -2.633000000     0.379000000    -6.325000000
O    -5.028000000    -1.019000000    -4.073000000
H    -5.774000000    -0.716000000    -4.590000000
H    -5.277000000    -0.843000000    -3.166000000
O     4.090000000    -4.782000000     3.042000000
H     4.210000000    -4.271000000     3.842000000
H     3.179000000    -5.073000000     3.077000000
O     1.603000000    -4.184000000     1.766000000
H     1.316000000    -4.110000000     2.676000000
H     0.877000000    -3.827000000     1.255000000
O    -0.739000000     4.447000000    -0.947000000
H    -1.401000000     5.139000000    -0.939000000
H    -1.103000000     3.762000000    -0.387000000
O     4.865000000     3.618000000    -0.657000000
H     3.922000000     3.666000000    -0.499000000
H     5.034000000     2.688000000    -0.810000000
O    -3.518000000     6.313000000    -1.214000000
H    -3.927000000     6.551000000    -2.046000000
H    -4.014000000     5.553000000    -0.912000000
O     1.062000000     6.566000000     0.551000000
H     1.223000000     5.623000000     0.574000000
H     1.227000000     6.815000000    -0.358000000
O     2.589000000    -2.556000000     7.031000000
H     3.163000000    -2.939000000     7.694000000
H     3.161000000    -2.406000000     6.278000000
O    -5.367000000    -0.254000000    -1.481000000
H    -5.688000000     0.595000000    -1.178000000
H    -5.474000000    -0.833000000    -0.727000000
O    -1.619000000    -2.429000000    -7.172000000
H    -0.915000000    -1.786000000    -7.259000000
H    -2.389000000    -1.993000000    -7.538000000
O     2.379000000     1.205000000    -4.356000000
H     2.118000000     0.978000000    -5.248000000
H     2.890000000     0.452000000    -4.057000000
O     5.103000000     1.731000000     5.423000000
H     4.695000000     2.590000000     5.528000000
H     4.446000000     1.208000000     4.964000000
O     3.639000000    -2.085000000     1.280000000
H     3.130000000    -2.895000000     1.274000000
H     3.166000000    -1.509000000     1.880000000
O     2.044000000     3.928000000    -0.072000000
H     2.077000000     3.719000000    -1.005000000
H     1.365000000     3.353000000     0.279000000
O    -0.117000000    -1.229000000     5.773000000
H    -0.098000000    -1.302000000     4.818000000
H     0.179000000    -2.085000000     6.084000000
O     1.413000000    -3.077000000    -1.234000000
H     2.194000000    -3.333000000    -1.726000000
H     1.524000000    -2.139000000    -1.080000000
O    -2.143000000     0.144000000     3.345000000
H    -1.426000000    -0.489000000     3.382000000
H    -2.819000000    -0.289000000     2.825000000
O    -5.011000000    -3.524000000     4.385000000
H    -4.654000000    -3.975000000     3.620000000
H    -4.435000000    -3.781000000     5.105000000
O    -3.189000000    -3.607000000    -3.976000000
H    -3.263000000    -3.763000000    -4.918000000
H    -3.598000000    -2.752000000    -3.842000000
O    -0.999000000    -4.138000000    -1.726000000
H    -1.302000000    -3.660000000    -2.498000000
H    -0.165000000    -3.726000000    -1.501000000
O    -0.516000000    -6.961000000     3.404000000
H    -1.025000000    -6.615000000     4.137000000
H     0.229000000    -6.365000000     3.328000000
O     2.949000000     0.996000000     3.963000000
H     2.570000000     0.191000000     3.608000000
H     3.232000000     1.488000000     3.193000000
O    -2.843000000     2.956000000     2.494000000
H    -2.342000000     2.167000000     2.699000000
H    -2.647000000     3.559000000     3.211000000
O     2.722000000     3.640000000    -2.769000000
H     1.989000000     4.101000000    -3.175000000
H     2.716000000     2.774000000    -3.178000000
O     5.166000000     2.755000000    -3.810000000
H     4.898000000     3.263000000    -3.044000000
H     5.497000000     1.933000000    -3.449000000
O     1.661000000     5.905000000    -5.486000000
H     1.063000000     5.448000000    -4.894000000
H     2.268000000     5.227000000    -5.784000000
O     6.010000000    -1.114000000     2.128000000
H     5.199000000    -1.411000000     1.717000000
H     5.789000000    -1.020000000     3.055000000
O     3.983000000     2.674000000     2.302000000
H     3.858000000     3.405000000     2.908000000
H     4.151000000     3.090000000     1.457000000
O     0.929000000    -4.336000000     4.515000000
H     0.882000000    -4.820000000     5.339000000
H     0.136000000    -3.799000000     4.507000000
O     6.077000000    -0.833000000     4.774000000
H     6.874000000    -1.332000000     4.952000000
H     6.208000000    -0.002000000     5.231000000
O    -2.058000000    -3.593000000     3.474000000
H    -2.339000000    -3.895000000     2.611000000
H    -1.362000000    -2.962000000     3.293000000
O    -4.337000000     3.979000000     0.295000000
H    -4.205000000     3.312000000    -0.379000000
H    -3.717000000     3.747000000     0.986000000
O    -2.504000000    -6.148000000     5.064000000
H    -2.432000000    -5.296000000     4.635000000
H    -3.276000000    -6.552000000     4.667000000
O    -1.217000000     1.914000000     5.464000000
H    -1.684000000     1.368000000     4.831000000
H    -0.477000000     1.376000000     5.745000000
