161
-3033.42157
C    -1.366000000     0.175000000     0.522000000
H    -2.435000000     0.281000000     0.686000000
C    -0.866000000     0.691000000    -0.675000000
H    -1.443000000     1.354000000    -1.314000000
C     0.432000000     0.503000000    -1.067000000
C     1.039000000     0.997000000    -2.370000000
H     0.472000000     0.725000000    -3.263000000
H     1.051000000     2.088000000    -2.394000000
H     2.076000000     0.676000000    -2.486000000
C     1.231000000    -0.213000000    -0.146000000
H     2.287000000    -0.302000000    -0.385000000
C     0.778000000    -0.739000000     1.083000000
H     1.490000000    -1.198000000     1.764000000
C    -0.614000000    -0.629000000     1.324000000
C    -1.216000000    -1.323000000     2.516000000
O    -0.496000000    -1.768000000     3.392000000
O    -2.426000000    -1.310000000     2.808000000
O    -4.767000000    -1.116000000    -0.807000000
H    -4.404000000    -0.269000000    -1.065000000
H    -5.330000000    -0.918000000    -0.058000000
O     5.635000000     1.636000000     3.328000000
H     6.136000000     2.359000000     2.948000000
H     5.398000000     1.090000000     2.578000000
O    -4.166000000     0.662000000     2.097000000
H    -4.958000000     0.248000000     2.440000000
H    -3.456000000     0.076000000     2.360000000
O     2.133000000     1.085000000     7.281000000
H     2.487000000     1.972000000     7.220000000
H     1.919000000     0.850000000     6.378000000
O     5.128000000     4.514000000    -3.325000000
H     5.293000000     3.607000000    -3.068000000
H     4.177000000     4.569000000    -3.411000000
O     3.428000000    -3.937000000    -2.795000000
H     4.212000000    -3.484000000    -2.484000000
H     3.445000000    -4.782000000    -2.345000000
O     1.203000000    -1.022000000     5.330000000
H     0.733000000    -1.115000000     4.501000000
H     2.121000000    -1.172000000     5.103000000
O    -4.185000000    -3.631000000    -1.673000000
H    -4.555000000    -2.773000000    -1.468000000
H    -3.273000000    -3.451000000    -1.900000000
O    -6.121000000    -3.381000000     3.043000000
H    -5.653000000    -2.678000000     3.493000000
H    -5.454000000    -4.047000000     2.880000000
O     2.001000000     2.740000000    -5.536000000
H     2.242000000     2.962000000    -6.435000000
H     2.373000000     1.870000000    -5.396000000
O    -1.975000000     4.680000000    -3.884000000
H    -2.932000000     4.688000000    -3.869000000
H    -1.738000000     5.433000000    -4.425000000
O     5.891000000    -2.170000000     1.762000000
H     5.184000000    -2.702000000     2.127000000
H     5.495000000    -1.311000000     1.618000000
O    -0.753000000     2.452000000    -5.050000000
H    -1.004000000     3.236000000    -4.561000000
H     0.204000000     2.440000000    -5.009000000
O     4.431000000    -4.298000000     3.123000000
H     5.249000000    -4.334000000     3.619000000
H     3.746000000    -4.390000000     3.785000000
O     3.834000000    -0.585000000     3.611000000
H     4.555000000    -0.607000000     4.239000000
H     3.385000000     0.242000000     3.790000000
O    -3.662000000    -5.357000000     0.328000000
H    -3.633000000    -4.743000000    -0.406000000
H    -3.579000000    -4.805000000     1.106000000
O    -0.791000000     4.802000000     2.317000000
H    -0.191000000     4.163000000     1.932000000
H    -1.626000000     4.642000000     1.876000000
O    -1.181000000    -5.840000000     2.453000000
H    -1.136000000    -5.344000000     1.635000000
H    -1.226000000    -6.755000000     2.175000000
O    -0.932000000     4.948000000    -1.231000000
H    -1.128000000     4.956000000    -2.168000000
H    -1.405000000     4.187000000    -0.894000000
O    -4.630000000     2.163000000    -0.754000000
H    -5.310000000     2.136000000    -1.427000000
H    -5.104000000     2.047000000     0.070000000
O    -2.109000000    -2.401000000     5.309000000
H    -2.038000000    -3.352000000     5.224000000
H    -1.615000000    -2.057000000     4.565000000
O    -6.688000000     0.067000000     0.786000000
H    -7.400000000    -0.351000000     1.271000000
H    -6.739000000     0.990000000     1.033000000
O     3.966000000     0.654000000    -5.392000000
H     3.855000000    -0.292000000    -5.307000000
H     4.619000000     0.758000000    -6.084000000
O     1.080000000    -3.840000000     3.297000000
H     0.730000000    -3.950000000     2.413000000
H     0.631000000    -3.067000000     3.638000000
O    -5.584000000     4.849000000    -0.362000000
H    -5.148000000     4.000000000    -0.432000000
H    -4.894000000     5.451000000    -0.083000000
O    -3.101000000     6.193000000     0.154000000
H    -2.286000000     5.714000000     0.002000000
H    -2.967000000     7.037000000    -0.276000000
O     1.909000000     4.273000000    -1.266000000
H     1.875000000     4.674000000    -2.134000000
H     1.010000000     4.326000000    -0.942000000
O    -1.684000000    -5.357000000     5.052000000
H    -1.378000000    -5.592000000     4.176000000
H    -0.887000000    -5.321000000     5.582000000
O    -1.125000000    -2.900000000    -1.645000000
H    -1.166000000    -2.049000000    -1.209000000
H    -0.247000000    -2.932000000    -2.026000000
O    -4.533000000    -0.995000000     4.378000000
H    -3.802000000    -1.127000000     3.774000000
H    -4.211000000    -1.324000000     5.217000000
O    -2.814000000     2.187000000     4.164000000
H    -3.413000000     1.491000000     3.895000000
H    -1.963000000     1.756000000     4.238000000
O     0.743000000    -2.756000000     7.479000000
H     0.827000000    -2.025000000     6.867000000
H     1.226000000    -3.472000000     7.065000000
O     4.589000000    -1.956000000    -5.109000000
H     4.698000000    -2.810000000    -5.528000000
H     4.815000000    -2.109000000    -4.192000000
O     0.741000000     2.552000000     1.726000000
H     1.340000000     2.253000000     2.409000000
H     0.743000000     1.845000000     1.080000000
O     2.502000000     1.914000000     4.000000000
H     3.340000000     2.226000000     3.659000000
H     2.206000000     2.613000000     4.584000000
O     5.372000000     1.691000000    -2.776000000
H     6.314000000     1.617000000    -2.931000000
H     4.991000000     0.964000000    -3.269000000
O     5.845000000     0.480000000     0.396000000
H     6.691000000     0.801000000     0.710000000
H     5.376000000     1.268000000     0.123000000
O     3.920000000     3.593000000     0.604000000
H     3.874000000     4.293000000     1.255000000
H     3.138000000     3.716000000     0.065000000
O     0.231000000    -3.796000000     0.628000000
H    -0.339000000    -3.521000000    -0.090000000
H     1.065000000    -4.003000000     0.206000000
O     2.423000000     4.789000000    -3.800000000
H     2.331000000     4.080000000    -4.436000000
H     2.061000000     5.557000000    -4.242000000
O    -4.762000000    -2.692000000     6.765000000
H    -5.480000000    -3.033000000     7.299000000
H    -4.577000000    -3.392000000     6.138000000
O    -3.306000000    -3.758000000     2.484000000
H    -2.952000000    -2.895000000     2.701000000
H    -2.946000000    -4.340000000     3.154000000
O    -2.575000000     3.337000000     0.450000000
H    -3.165000000     2.764000000    -0.040000000
H    -2.231000000     2.784000000     1.151000000
O     1.397000000    -6.247000000     4.546000000
H     1.104000000    -6.193000000     5.456000000
H     1.232000000    -5.374000000     4.189000000
O    -0.990000000    -2.080000000    -4.959000000
H    -0.477000000    -2.294000000    -5.738000000
H    -0.364000000    -2.139000000    -4.237000000
O     1.211000000    -2.316000000    -3.055000000
H     1.306000000    -1.488000000    -2.585000000
H     2.082000000    -2.712000000    -3.022000000
O    -2.142000000    -0.912000000     7.555000000
H    -2.071000000    -1.528000000     6.826000000
H    -2.214000000    -1.466000000     8.332000000
O    -2.929000000     1.010000000    -6.263000000
H    -3.587000000     0.695000000    -5.643000000
H    -2.379000000     1.602000000    -5.749000000
