161
-3052.60482
C    -0.712000000    -0.946000000     0.889000000
H    -1.300000000    -1.648000000     1.475000000
C    -1.142000000    -0.430000000    -0.328000000
H    -2.112000000    -0.835000000    -0.605000000
C    -0.412000000     0.521000000    -1.034000000
C    -0.997000000     1.039000000    -2.362000000
H    -2.081000000     1.136000000    -2.273000000
H    -0.619000000     2.002000000    -2.713000000
H    -0.762000000     0.259000000    -3.089000000
C     0.870000000     0.828000000    -0.639000000
H     1.471000000     1.435000000    -1.312000000
C     1.336000000     0.331000000     0.613000000
H     2.388000000     0.492000000     0.838000000
C     0.525000000    -0.566000000     1.421000000
C     1.045000000    -1.120000000     2.706000000
O     2.217000000    -0.893000000     2.901000000
O     0.283000000    -1.603000000     3.510000000
O    -5.286000000     1.516000000    -1.127000000
H    -4.880000000     2.232000000    -1.615000000
H    -6.062000000     1.287000000    -1.638000000
O     6.056000000     2.334000000    -2.444000000
H     5.144000000     2.307000000    -2.154000000
H     6.248000000     1.435000000    -2.712000000
O    -5.087000000    -1.607000000     2.716000000
H    -4.899000000    -2.224000000     3.424000000
H    -4.702000000    -2.012000000     1.938000000
O     1.518000000     3.151000000     4.688000000
H     1.199000000     2.390000000     5.174000000
H     2.295000000     2.833000000     4.229000000
O    -1.705000000     1.502000000    -5.526000000
H    -2.239000000     2.118000000    -5.024000000
H    -0.909000000     1.990000000    -5.736000000
O    -0.099000000     1.214000000     5.884000000
H     0.190000000     0.332000000     6.120000000
H    -0.899000000     1.076000000     5.377000000
O    -5.119000000    -3.922000000     1.054000000
H    -5.945000000    -3.704000000     1.487000000
H    -5.372000000    -4.499000000     0.333000000
O    -3.595000000     3.791000000    -5.351000000
H    -4.051000000     4.633000000    -5.339000000
H    -3.336000000     3.672000000    -6.264000000
O     4.715000000    -2.925000000     6.280000000
H     4.483000000    -2.524000000     5.443000000
H     4.485000000    -3.849000000     6.175000000
O    -2.101000000    -4.325000000     1.550000000
H    -2.925000000    -4.027000000     1.165000000
H    -1.576000000    -4.607000000     0.802000000
O     4.574000000    -0.616000000     4.434000000
H     3.917000000    -1.104000000     3.938000000
H     4.098000000    -0.279000000     5.194000000
O    -1.889000000     6.341000000    -5.028000000
H    -1.922000000     6.522000000    -5.968000000
H    -1.460000000     5.488000000    -4.964000000
O     7.676000000    -0.041000000     0.944000000
H     8.460000000     0.302000000     1.373000000
H     7.046000000     0.678000000     0.984000000
O    -3.544000000    -0.909000000    -5.814000000
H    -2.611000000    -1.118000000    -5.778000000
H    -3.574000000     0.048000000    -5.839000000
O    -1.313000000     4.408000000     0.959000000
H    -1.854000000     3.790000000     1.450000000
H    -1.871000000     5.177000000     0.843000000
O    -3.801000000    -1.310000000    -3.096000000
H    -4.454000000    -0.655000000    -2.850000000
H    -3.782000000    -1.282000000    -4.053000000
O     5.128000000    -4.448000000     3.003000000
H     4.327000000    -4.076000000     3.372000000
H     5.736000000    -3.710000000     2.957000000
O    -0.875000000    -0.999000000    -6.062000000
H    -0.875000000    -0.193000000    -5.546000000
H     0.005000000    -1.046000000    -6.435000000
O     1.508000000     4.334000000     1.380000000
H     0.608000000     4.453000000     1.079000000
H     1.433000000     3.747000000     2.133000000
O     2.226000000    -3.719000000     0.364000000
H     1.587000000    -3.281000000    -0.198000000
H     2.729000000    -4.274000000    -0.233000000
O     0.856000000     5.504000000    -1.343000000
H     1.388000000     4.806000000    -1.724000000
H     0.347000000     5.071000000    -0.658000000
O    -2.741000000    -6.508000000     2.703000000
H    -3.417000000    -7.031000000     2.271000000
H    -2.677000000    -5.714000000     2.173000000
O    -0.347000000     4.164000000    -5.790000000
H     0.233000000     3.459000000    -5.503000000
H     0.014000000     4.445000000    -6.631000000
O     2.527000000    -2.027000000     7.905000000
H     1.855000000    -2.131000000     7.230000000
H     3.286000000    -2.498000000     7.562000000
O     3.496000000     1.213000000    -3.322000000
H     3.408000000     0.260000000    -3.331000000
H     4.031000000     1.411000000    -4.090000000
O     3.797000000     0.278000000     7.156000000
H     3.018000000     0.830000000     7.220000000
H     3.487000000    -0.600000000     7.380000000
O     4.716000000    -1.644000000     0.432000000
H     3.831000000    -1.806000000     0.759000000
H     5.267000000    -1.660000000     1.214000000
O     3.674000000     3.179000000    -0.257000000
H     3.386000000     3.339000000    -1.156000000
H     3.039000000     3.647000000     0.285000000
O     0.453000000    -1.607000000     6.416000000
H     0.334000000    -1.595000000     5.466000000
H    -0.295000000    -2.106000000     6.745000000
O     0.356000000    -2.617000000    -1.489000000
H     0.009000000    -1.867000000    -1.006000000
H     1.128000000    -2.275000000    -1.940000000
O    -1.860000000    -0.390000000     4.529000000
H    -1.199000000    -0.907000000     4.070000000
H    -2.654000000    -0.923000000     4.485000000
O    -4.237000000    -3.457000000     4.779000000
H    -3.287000000    -3.349000000     4.817000000
H    -4.502000000    -3.567000000     5.692000000
O    -3.028000000    -3.911000000    -2.588000000
H    -3.405000000    -3.979000000    -3.465000000
H    -3.237000000    -3.021000000    -2.306000000
O    -1.181000000    -4.830000000    -0.949000000
H    -1.838000000    -4.709000000    -1.634000000
H    -0.492000000    -4.200000000    -1.163000000
O     0.688000000    -5.676000000     1.727000000
H    -0.218000000    -5.372000000     1.674000000
H     1.176000000    -5.075000000     1.164000000
O     3.115000000     1.731000000     3.351000000
H     4.041000000     1.516000000     3.460000000
H     2.732000000     0.950000000     2.952000000
O    -1.808000000     1.978000000     2.550000000
H    -1.989000000     1.038000000     2.539000000
H    -0.901000000     2.050000000     2.253000000
O     2.429000000     3.637000000    -2.700000000
H     2.982000000     4.268000000    -3.161000000
H     2.763000000     2.782000000    -2.974000000
O    -3.707000000     3.022000000    -2.926000000
H    -3.740000000     3.504000000    -3.753000000
H    -2.921000000     3.351000000    -2.489000000
O     1.074000000     1.826000000    -5.668000000
H     1.599000000     1.400000000    -4.990000000
H     1.677000000     1.938000000    -6.403000000
O     6.484000000    -1.861000000     2.762000000
H     6.859000000    -1.191000000     2.190000000
H     5.929000000    -1.372000000     3.370000000
O     5.793000000     2.155000000     1.463000000
H     6.013000000     3.002000000     1.852000000
H     5.156000000     2.363000000     0.780000000
O     2.826000000    -3.618000000     4.125000000
H     2.214000000    -2.902000000     3.956000000
H     2.268000000    -4.380000000     4.279000000
O    -1.426000000    -3.749000000     4.052000000
H    -1.784000000    -4.105000000     3.239000000
H    -0.910000000    -2.992000000     3.776000000
O    -6.349000000     0.657000000     1.614000000
H    -5.964000000     0.801000000     0.750000000
H    -5.981000000    -0.177000000     1.904000000
O    -3.992000000     3.165000000     0.810000000
H    -4.486000000     2.463000000     0.386000000
H    -3.377000000     2.711000000     1.386000000
O    -0.281000000    -5.655000000     5.967000000
H    -0.323000000    -4.914000000     5.362000000
H    -0.787000000    -6.344000000     5.537000000
O     2.837000000    -1.419000000    -2.076000000
H     3.382000000    -0.935000000    -1.457000000
H     3.455000000    -1.960000000    -2.568000000
