161
-3026.74268
C    -0.655000000    -1.208000000    -0.685000000
H    -1.237000000    -2.034000000    -1.086000000
C    -1.291000000    -0.162000000     0.048000000
H    -2.370000000    -0.240000000     0.151000000
C    -0.609000000     0.877000000     0.643000000
C    -1.365000000     1.897000000     1.450000000
H    -2.103000000     2.370000000     0.798000000
H    -1.963000000     1.359000000     2.189000000
H    -0.639000000     2.483000000     2.017000000
C     0.769000000     0.998000000     0.460000000
H     1.280000000     1.767000000     1.033000000
C     1.378000000     0.001000000    -0.347000000
H     2.452000000     0.162000000    -0.380000000
C     0.724000000    -1.082000000    -0.967000000
C     1.623000000    -2.095000000    -1.665000000
O     2.767000000    -1.848000000    -1.866000000
O     1.243000000    -3.245000000    -1.788000000
O     3.296000000    -0.671000000     2.873000000
H     3.866000000     0.091000000     2.769000000
H     3.865000000    -1.346000000     3.244000000
O    -0.504000000     5.890000000     3.461000000
H    -0.598000000     6.183000000     2.555000000
H    -1.372000000     5.566000000     3.699000000
O     2.269000000    -3.906000000    -6.705000000
H     2.717000000    -3.429000000    -6.006000000
H     1.376000000    -4.024000000    -6.381000000
O     3.667000000     2.322000000     4.883000000
H     3.386000000     2.683000000     4.043000000
H     4.421000000     1.772000000     4.668000000
O     5.392000000    -2.217000000    -2.257000000
H     4.459000000    -2.146000000    -2.057000000
H     5.508000000    -3.124000000    -2.538000000
O     6.265000000     3.429000000    -1.534000000
H     5.854000000     2.833000000    -0.908000000
H     7.169000000     3.121000000    -1.600000000
O    -4.029000000    -1.936000000     5.141000000
H    -4.775000000    -1.387000000     4.900000000
H    -3.294000000    -1.327000000     5.208000000
O     3.152000000     4.205000000     2.871000000
H     2.749000000     4.763000000     2.205000000
H     3.920000000     4.697000000     3.162000000
O     3.375000000    -2.730000000    -4.475000000
H     2.897000000    -2.659000000    -3.649000000
H     3.886000000    -1.923000000    -4.527000000
O     1.224000000    -8.089000000    -2.331000000
H     1.140000000    -7.642000000    -1.489000000
H     1.959000000    -8.690000000    -2.210000000
O    -0.181000000    -2.596000000    -5.600000000
H     0.350000000    -1.811000000    -5.468000000
H    -0.913000000    -2.302000000    -6.142000000
O    -6.713000000    -2.211000000     0.807000000
H    -6.990000000    -3.066000000     1.135000000
H    -5.757000000    -2.263000000     0.779000000
O    -3.226000000     2.738000000    -1.948000000
H    -3.811000000     3.252000000    -2.505000000
H    -3.254000000     1.857000000    -2.322000000
O    -3.968000000    -2.854000000     0.814000000
H    -3.249000000    -2.321000000     0.476000000
H    -3.733000000    -3.752000000     0.576000000
O     2.844000000    -3.917000000     0.624000000
H     2.605000000    -3.632000000    -0.259000000
H     3.544000000    -3.320000000     0.887000000
O    -1.752000000     4.855000000    -1.522000000
H    -2.465000000     5.475000000    -1.677000000
H    -2.192000000     4.039000000    -1.284000000
O    -4.127000000    -2.284000000    -2.813000000
H    -5.004000000    -1.963000000    -3.026000000
H    -4.239000000    -2.755000000    -1.987000000
O     3.248000000     0.774000000    -2.802000000
H     2.582000000     0.936000000    -3.470000000
H     3.055000000    -0.107000000    -2.480000000
O     5.150000000     1.139000000     2.534000000
H     4.965000000     1.605000000     1.719000000
H     5.955000000     0.653000000     2.355000000
O    -3.363000000     0.558000000    -3.547000000
H    -3.015000000    -0.314000000    -3.358000000
H    -3.400000000     0.598000000    -4.503000000
O     5.113000000    -2.651000000     2.982000000
H     5.324000000    -3.520000000     2.640000000
H     5.443000000    -2.045000000     2.319000000
O    -2.649000000    -4.398000000    -5.076000000
H    -2.777000000    -3.613000000    -4.544000000
H    -1.801000000    -4.742000000    -4.796000000
O     5.639000000    -1.450000000     0.647000000
H     6.222000000    -0.694000000     0.712000000
H     5.312000000    -1.424000000    -0.252000000
O    -5.000000000    -3.655000000     3.057000000
H    -4.409000000    -3.286000000     3.714000000
H    -4.784000000    -3.187000000     2.251000000
O    -4.353000000     1.662000000     4.726000000
H    -4.790000000     2.084000000     3.986000000
H    -4.138000000     2.381000000     5.320000000
O    -6.788000000     0.290000000    -0.746000000
H    -7.461000000     0.439000000    -1.411000000
H    -6.735000000    -0.663000000    -0.669000000
O     5.748000000     0.913000000    -3.984000000
H     4.860000000     0.974000000    -3.631000000
H     5.630000000     0.567000000    -4.869000000
O    -4.308000000     6.205000000     1.821000000
H    -5.047000000     5.597000000     1.819000000
H    -3.577000000     5.693000000     2.166000000
O    -5.119000000     2.020000000     0.065000000
H    -4.669000000     2.187000000    -0.763000000
H    -5.674000000     1.260000000    -0.113000000
O     1.027000000     4.611000000     5.147000000
H     0.535000000     5.045000000     4.449000000
H     1.697000000     4.105000000     4.687000000
O    -0.188000000    -4.999000000    -0.337000000
H     0.288000000    -4.816000000     0.473000000
H     0.208000000    -4.417000000    -0.985000000
O     2.019000000     5.809000000     0.261000000
H     1.691000000     5.173000000    -0.375000000
H     2.434000000     6.488000000    -0.271000000
O    -4.730000000    -4.653000000    -1.179000000
H    -5.005000000    -5.321000000    -1.807000000
H    -5.018000000    -4.990000000    -0.330000000
O    -2.742000000     4.276000000     4.061000000
H    -3.267000000     3.801000000     3.417000000
H    -3.255000000     4.235000000     4.867000000
O     0.426000000    -4.572000000    -3.801000000
H     0.664000000    -4.089000000    -3.010000000
H     0.233000000    -3.894000000    -4.448000000
O     0.681000000    -1.413000000     2.966000000
H     1.535000000    -0.988000000     2.887000000
H     0.225000000    -1.187000000     2.155000000
O     2.998000000    -7.376000000     1.418000000
H     3.340000000    -7.892000000     0.688000000
H     2.834000000    -6.511000000     1.043000000
O    -1.799000000    -6.856000000    -2.518000000
H    -1.278000000    -7.438000000    -3.071000000
H    -1.151000000    -6.336000000    -2.041000000
O     0.937000000     0.744000000    -4.305000000
H     0.068000000     0.662000000    -3.912000000
H     0.767000000     0.865000000    -5.239000000
O     5.743000000    -4.493000000    -3.860000000
H     6.509000000    -4.077000000    -4.256000000
H     5.004000000    -4.176000000    -4.379000000
O    -1.129000000     6.697000000     0.797000000
H    -0.247000000     6.624000000     0.433000000
H    -1.683000000     6.221000000     0.179000000
O    -5.068000000     3.376000000     2.504000000
H    -4.978000000     2.822000000     1.728000000
H    -5.945000000     3.752000000     2.429000000
O     1.003000000    -6.966000000    -5.103000000
H     1.544000000    -7.119000000    -4.328000000
H     0.512000000    -6.170000000    -4.899000000
O     4.133000000     2.386000000     0.103000000
H     3.969000000     2.110000000    -0.798000000
H     3.287000000     2.714000000     0.411000000
O     1.138000000    -4.054000000     2.735000000
H     0.913000000    -3.155000000     2.974000000
H     1.776000000    -3.961000000     2.027000000
O     0.893000000     3.953000000    -1.507000000
H     0.973000000     3.013000000    -1.665000000
H    -0.043000000     4.093000000    -1.363000000
O    -0.943000000    -2.007000000     5.132000000
H    -0.548000000    -1.328000000     5.679000000
H    -0.550000000    -1.878000000     4.269000000
O    -2.787000000    -5.235000000     0.996000000
H    -1.896000000    -5.003000000     0.736000000
H    -2.718000000    -5.447000000     1.927000000
