161
-3052.19586
C    -0.750000000    -1.307000000     0.152000000
H    -1.327000000    -2.220000000     0.274000000
C    -0.810000000    -0.219000000     1.037000000
H    -1.259000000    -0.276000000     2.026000000
C    -0.087000000     0.954000000     0.784000000
C    -0.061000000     1.999000000     1.817000000
H     0.564000000     1.636000000     2.635000000
H     0.271000000     2.952000000     1.399000000
H    -1.017000000     2.175000000     2.314000000
C     0.691000000     1.044000000    -0.360000000
H     1.278000000     1.924000000    -0.612000000
C     0.645000000     0.032000000    -1.232000000
H     1.206000000     0.259000000    -2.135000000
C    -0.021000000    -1.183000000    -1.033000000
C     0.111000000    -2.250000000    -2.116000000
O     1.045000000    -2.260000000    -2.896000000
O    -0.484000000    -3.266000000    -2.047000000
O    -1.100000000    -3.457000000     3.478000000
H    -0.414000000    -2.849000000     3.753000000
H    -0.938000000    -3.595000000     2.545000000
O    -5.819000000     3.681000000     2.575000000
H    -5.914000000     4.414000000     3.184000000
H    -5.257000000     3.058000000     3.036000000
O     4.230000000    -2.706000000     0.300000000
H     4.494000000    -3.364000000     0.943000000
H     4.588000000    -3.024000000    -0.529000000
O    -2.833000000     4.421000000     4.993000000
H    -2.235000000     4.724000000     4.310000000
H    -3.695000000     4.724000000     4.709000000
O    -3.881000000    -3.166000000     4.529000000
H    -4.465000000    -3.898000000     4.725000000
H    -3.108000000    -3.575000000     4.140000000
O     2.474000000     5.630000000     0.724000000
H     2.990000000     4.919000000     0.344000000
H     1.981000000     5.989000000    -0.014000000
O     3.419000000    -2.460000000    -3.915000000
H     2.580000000    -2.595000000    -3.475000000
H     4.075000000    -2.645000000    -3.242000000
O     3.990000000     1.319000000    -1.449000000
H     4.248000000     0.435000000    -1.190000000
H     3.943000000     1.285000000    -2.405000000
O    -1.019000000    -0.276000000     6.918000000
H    -0.098000000    -0.104000000     6.722000000
H    -1.449000000     0.573000000     6.816000000
O     2.675000000    -4.982000000    -0.472000000
H     1.766000000    -5.197000000    -0.679000000
H     2.656000000    -4.051000000    -0.249000000
O    -1.176000000     5.141000000     3.069000000
H    -0.976000000     4.822000000     2.189000000
H    -0.576000000     5.875000000     3.200000000
O     3.160000000    -5.373000000    -5.789000000
H     2.365000000    -5.207000000    -5.283000000
H     3.691000000    -4.585000000    -5.666000000
O     0.860000000     7.145000000     2.818000000
H     1.277000000     6.481000000     2.270000000
H     1.488000000     7.304000000     3.522000000
O     5.670000000    -2.785000000    -2.303000000
H     6.232000000    -2.172000000    -1.829000000
H     6.205000000    -3.078000000    -3.042000000
O     0.176000000    -5.647000000    -1.591000000
H    -0.142000000    -4.748000000    -1.508000000
H    -0.588000000    -6.146000000    -1.879000000
O    -4.673000000     5.748000000     0.448000000
H    -4.059000000     5.014000000     0.434000000
H    -5.372000000     5.464000000     1.037000000
O    -2.412000000    -2.977000000    -3.836000000
H    -1.608000000    -3.143000000    -3.343000000
H    -3.062000000    -2.762000000    -3.167000000
O    -2.716000000     0.107000000    -2.523000000
H    -3.523000000     0.223000000    -3.024000000
H    -2.836000000    -0.724000000    -2.063000000
O     3.905000000     0.379000000    -4.067000000
H     3.118000000     0.826000000    -4.377000000
H     3.612000000    -0.509000000    -3.863000000
O    -1.646000000     2.593000000    -1.937000000
H    -0.909000000     2.061000000    -1.634000000
H    -2.357000000     1.966000000    -2.065000000
O    -0.220000000    -5.121000000    -6.628000000
H     0.524000000    -5.124000000    -6.025000000
H    -0.904000000    -4.640000000    -6.162000000
O    -5.191000000    -1.001000000     3.397000000
H    -4.694000000    -1.782000000     3.641000000
H    -5.663000000    -0.759000000     4.193000000
O    -3.580000000     3.297000000     0.281000000
H    -2.701000000     3.211000000    -0.087000000
H    -3.768000000     2.436000000     0.655000000
O    -1.044000000     2.466000000     5.849000000
H    -0.184000000     2.844000000     5.670000000
H    -1.663000000     3.162000000     5.630000000
O    -1.852000000     3.085000000    -5.777000000
H    -1.605000000     2.225000000    -5.438000000
H    -2.133000000     3.575000000    -5.004000000
O    -4.027000000     1.475000000     2.600000000
H    -3.528000000     1.334000000     3.404000000
H    -4.599000000     0.710000000     2.536000000
O     0.899000000     4.084000000     5.405000000
H     1.793000000     4.345000000     5.625000000
H     0.347000000     4.753000000     5.810000000
O    -3.042000000    -4.770000000    -1.001000000
H    -3.283000000    -3.864000000    -1.193000000
H    -2.515000000    -4.713000000    -0.204000000
O     1.802000000     3.941000000    -4.242000000
H     1.817000000     4.196000000    -5.164000000
H     2.701000000     4.071000000    -3.942000000
O     1.014000000     5.670000000    -1.987000000
H     0.723000000     6.416000000    -2.511000000
H     1.192000000     4.981000000    -2.628000000
O    -4.388000000    -2.367000000    -1.319000000
H    -4.571000000    -2.007000000    -0.451000000
H    -5.216000000    -2.284000000    -1.792000000
O     1.233000000    -4.776000000    -4.112000000
H     0.914000000    -3.984000000    -3.680000000
H     1.244000000    -5.439000000    -3.422000000
O     1.690000000     0.309000000     5.799000000
H     1.733000000     1.134000000     5.314000000
H     2.057000000     0.517000000     6.658000000
O     2.522000000    -0.915000000     1.329000000
H     3.127000000    -1.592000000     1.026000000
H     2.039000000    -0.657000000     0.544000000
O    -1.786000000    -7.359000000    -2.375000000
H    -2.156000000    -7.491000000    -1.502000000
H    -1.942000000    -8.188000000    -2.829000000
O     2.953000000    -2.775000000    -6.711000000
H     3.134000000    -2.478000000    -5.819000000
H     2.004000000    -2.693000000    -6.803000000
O    -2.630000000    -5.738000000    -4.547000000
H    -2.499000000    -6.265000000    -3.758000000
H    -2.904000000    -4.881000000    -4.220000000
O     0.561000000    -1.908000000    -5.634000000
H     0.627000000    -0.974000000    -5.436000000
H     0.608000000    -2.338000000    -4.780000000
O    -1.954000000    -2.603000000    -6.575000000
H    -1.045000000    -2.307000000    -6.528000000
H    -2.218000000    -2.708000000    -5.661000000
O     4.367000000     0.833000000     2.121000000
H     3.536000000     0.367000000     2.033000000
H     4.126000000     1.759000000     2.098000000
O    -1.386000000     0.458000000    -5.117000000
H    -1.729000000     0.239000000    -4.250000000
H    -2.096000000     0.234000000    -5.719000000
O    -0.827000000     5.306000000     0.190000000
H    -1.104000000     6.219000000     0.115000000
H    -0.256000000     5.166000000    -0.566000000
O    -3.373000000    -5.551000000     3.083000000
H    -2.820000000    -5.820000000     2.349000000
H    -4.267000000    -5.622000000     2.748000000
O     4.177000000     3.409000000     0.338000000
H     4.017000000     2.674000000    -0.254000000
H     5.131000000     3.474000000     0.386000000
O    -0.772000000    -5.050000000     1.160000000
H    -0.511000000    -5.072000000     0.239000000
H    -0.377000000    -5.834000000     1.540000000
O     1.273000000     1.171000000    -5.031000000
H     0.388000000     0.850000000    -5.201000000
H     1.148000000     2.070000000    -4.728000000
O    -5.939000000    -1.159000000     0.711000000
H    -5.485000000    -1.160000000     1.554000000
H    -6.006000000    -0.234000000     0.476000000
O     1.575000000    -1.835000000     3.850000000
H     1.463000000    -1.003000000     4.309000000
H     1.839000000    -1.586000000     2.964000000
