161
-3049.11332
C     0.103000000     0.962000000     1.111000000
H     0.222000000     1.545000000     2.020000000
C    -0.109000000    -0.410000000     1.235000000
H    -0.277000000    -0.846000000     2.216000000
C    -0.183000000    -1.171000000     0.088000000
C    -0.433000000    -2.674000000     0.168000000
H    -1.430000000    -2.898000000    -0.217000000
H     0.348000000    -3.272000000    -0.307000000
H    -0.347000000    -3.118000000     1.162000000
C    -0.036000000    -0.613000000    -1.168000000
H    -0.154000000    -1.275000000    -2.022000000
C     0.152000000     0.763000000    -1.295000000
H     0.242000000     1.227000000    -2.274000000
C     0.234000000     1.554000000    -0.140000000
C     0.490000000     3.011000000    -0.198000000
O     0.505000000     3.655000000    -1.241000000
O     0.675000000     3.556000000     0.866000000
O    -2.123000000     1.807000000    -6.931000000
H    -2.880000000     1.632000000    -7.489000000
H    -2.138000000     1.106000000    -6.279000000
O     0.869000000     1.231000000    -5.820000000
H    -0.014000000     1.499000000    -6.072000000
H     1.015000000     1.652000000    -4.973000000
O     0.477000000     5.605000000    -4.180000000
H    -0.171000000     5.583000000    -4.884000000
H     0.210000000     6.342000000    -3.631000000
O     2.435000000    -5.401000000     3.132000000
H     2.316000000    -5.943000000     3.912000000
H     1.546000000    -5.239000000     2.816000000
O     2.720000000     2.625000000    -7.043000000
H     3.477000000     2.039000000    -7.035000000
H     2.042000000     2.148000000    -6.564000000
O     1.477000000     1.295000000     6.210000000
H     1.072000000     0.551000000     5.765000000
H     2.237000000     1.512000000     5.670000000
O    -2.445000000    -2.029000000     4.949000000
H    -2.374000000    -1.305000000     5.571000000
H    -3.329000000    -2.371000000     5.079000000
O    -2.335000000    -3.745000000     2.659000000
H    -2.248000000    -3.117000000     3.377000000
H    -1.453000000    -4.096000000     2.540000000
O    -5.380000000    -5.028000000    -1.932000000
H    -5.246000000    -4.587000000    -1.093000000
H    -5.938000000    -5.777000000    -1.722000000
O     4.086000000    -3.334000000    -1.849000000
H     4.143000000    -3.229000000    -0.899000000
H     3.756000000    -4.224000000    -1.972000000
O     3.985000000    -4.428000000     0.959000000
H     4.282000000    -5.081000000     0.325000000
H     3.470000000    -4.928000000     1.593000000
O    -5.076000000    -2.753000000     2.763000000
H    -5.310000000    -2.707000000     1.836000000
H    -4.155000000    -3.012000000     2.765000000
O     4.005000000     6.575000000    -0.636000000
H     3.764000000     7.117000000     0.116000000
H     3.174000000     6.392000000    -1.075000000
O     3.805000000     1.343000000     4.381000000
H     4.406000000     0.689000000     4.738000000
H     3.767000000     1.148000000     3.445000000
O    -2.678000000     5.974000000     3.362000000
H    -3.570000000     5.703000000     3.581000000
H    -2.374000000     5.314000000     2.738000000
O     1.179000000     6.288000000    -0.567000000
H     0.445000000     6.436000000     0.030000000
H     1.097000000     5.369000000    -0.823000000
O    -3.228000000    -0.348000000    -0.470000000
H    -2.400000000    -0.364000000    -0.951000000
H    -3.158000000     0.417000000     0.101000000
O    -1.652000000     3.738000000     2.136000000
H    -0.808000000     3.638000000     1.695000000
H    -1.591000000     3.167000000     2.902000000
O    -1.424000000    -7.161000000     0.414000000
H    -2.260000000    -6.746000000     0.200000000
H    -1.542000000    -8.078000000     0.168000000
O     0.126000000    -0.856000000     5.251000000
H     0.287000000    -1.396000000     6.024000000
H    -0.551000000    -1.328000000     4.765000000
O    -4.787000000    -2.425000000    -0.049000000
H    -5.385000000    -2.229000000    -0.770000000
H    -4.141000000    -1.719000000    -0.075000000
O    -0.478000000     6.989000000     1.506000000
H    -0.885000000     6.438000000     2.175000000
H    -0.931000000     7.830000000     1.581000000
O    -0.076000000    -2.354000000    -5.568000000
H    -0.546000000    -1.528000000    -5.454000000
H     0.541000000    -2.381000000    -4.836000000
O     3.831000000     1.149000000    -2.590000000
H     3.821000000     2.052000000    -2.906000000
H     2.913000000     0.879000000    -2.607000000
O    -2.410000000     1.471000000    -3.565000000
H    -2.250000000     2.414000000    -3.519000000
H    -3.048000000     1.302000000    -2.872000000
O    -3.429000000     2.544000000     0.436000000
H    -3.437000000     3.076000000    -0.360000000
H    -2.737000000     2.928000000     0.974000000
O    -4.487000000     3.405000000    -2.107000000
H    -3.671000000     3.771000000    -2.449000000
H    -5.099000000     4.141000000    -2.108000000
O    -0.354000000    -5.676000000     2.636000000
H    -0.536000000    -6.018000000     1.760000000
H    -0.299000000    -6.454000000     3.190000000
O    -1.786000000    -4.367000000    -4.832000000
H    -2.242000000    -3.880000000    -4.146000000
H    -0.991000000    -3.861000000    -4.997000000
O     2.120000000    -2.046000000    -3.745000000
H     2.973000000    -1.709000000    -4.020000000
H     2.309000000    -2.567000000    -2.965000000
O     2.838000000    -5.738000000    -2.007000000
H     3.091000000    -6.408000000    -2.643000000
H     1.882000000    -5.780000000    -1.982000000
O     3.748000000    -3.524000000     5.066000000
H     3.762000000    -2.585000000     4.880000000
H     3.320000000    -3.913000000     4.304000000
O     3.952000000     0.394000000     1.821000000
H     4.808000000     0.182000000     1.448000000
H     3.326000000    -0.062000000     1.258000000
O     4.075000000     4.134000000    -3.358000000
H     4.326000000     4.984000000    -3.719000000
H     4.569000000     4.066000000    -2.540000000
O     2.061000000     8.838000000    -1.490000000
H     2.634000000     9.136000000    -0.784000000
H     1.673000000     8.028000000    -1.158000000
O     5.258000000     4.283000000    -0.350000000
H     4.551000000     3.934000000     0.194000000
H     5.108000000     5.228000000    -0.358000000
O    -0.158000000    -5.965000000    -1.925000000
H    -0.661000000    -6.572000000    -2.467000000
H    -0.548000000    -6.041000000    -1.054000000
O    -2.423000000    -0.810000000    -5.078000000
H    -2.264000000    -0.110000000    -4.445000000
H    -3.364000000    -0.976000000    -5.021000000
O     1.618000000     6.949000000     4.923000000
H     1.708000000     6.331000000     4.198000000
H     0.676000000     6.993000000     5.086000000
O     3.438000000     3.300000000     1.489000000
H     3.646000000     2.367000000     1.438000000
H     2.558000000     3.370000000     1.118000000
O     1.668000000     2.959000000    -3.644000000
H     2.461000000     3.495000000    -3.637000000
H     1.022000000     3.481000000    -3.167000000
O    -4.856000000     0.082000000     3.633000000
H    -5.667000000    -0.388000000     3.824000000
H    -4.323000000    -0.546000000     3.147000000
O     1.235000000     5.037000000     2.965000000
H     1.265000000     4.355000000     2.293000000
H     0.749000000     5.753000000     2.558000000
O    -3.530000000    -4.910000000     0.463000000
H    -3.768000000    -4.088000000     0.035000000
H    -3.125000000    -4.642000000     1.288000000
O    -1.759000000     3.928000000    -2.939000000
H    -1.485000000     4.192000000    -3.817000000
H    -0.984000000     4.067000000    -2.395000000
O    -1.692000000     1.624000000     4.521000000
H    -1.363000000     0.766000000     4.789000000
H    -2.402000000     1.811000000     5.136000000
O     4.793000000     4.637000000     3.507000000
H     4.005000000     4.160000000     3.245000000
H     5.513000000     4.042000000     3.299000000
O    -1.097000000     7.553000000    -3.425000000
H    -0.979000000     8.316000000    -2.859000000
H    -1.960000000     7.212000000    -3.190000000
