161
-3013.43885
C    -0.051000000    -1.165000000    -0.758000000
H    -0.061000000    -1.959000000    -1.500000000
C     1.129000000    -0.503000000    -0.418000000
H     2.078000000    -0.953000000    -0.699000000
C     1.000000000     0.682000000     0.404000000
C     2.338000000     1.329000000     0.779000000
H     3.067000000     0.577000000     1.090000000
H     2.772000000     1.989000000     0.026000000
H     2.263000000     1.775000000     1.773000000
C    -0.268000000     1.102000000     0.705000000
H    -0.417000000     2.042000000     1.231000000
C    -1.403000000     0.380000000     0.363000000
H    -2.421000000     0.738000000     0.499000000
C    -1.276000000    -0.731000000    -0.434000000
C    -2.587000000    -1.520000000    -0.922000000
O    -3.755000000    -1.222000000    -0.569000000
O    -2.404000000    -2.556000000    -1.575000000
O     1.825000000     3.639000000     3.838000000
H     0.923000000     3.323000000     3.894000000
H     2.051000000     3.556000000     2.912000000
O     2.061000000     4.596000000     0.920000000
H     1.144000000     4.849000000     1.024000000
H     2.149000000     4.393000000    -0.011000000
O     2.434000000    -2.021000000     4.114000000
H     2.436000000    -1.236000000     4.662000000
H     1.734000000    -1.869000000     3.480000000
O    -6.107000000    -2.166000000    -0.055000000
H    -5.223000000    -1.847000000    -0.238000000
H    -6.644000000    -1.800000000    -0.759000000
O    -0.362000000     1.492000000    -2.798000000
H    -0.437000000     2.260000000    -2.233000000
H    -0.028000000     0.803000000    -2.224000000
O    -0.968000000     3.928000000    -1.031000000
H    -1.326000000     4.744000000    -1.382000000
H    -0.964000000     4.056000000    -0.083000000
O     6.561000000     3.090000000     1.777000000
H     6.800000000     2.390000000     1.170000000
H     6.781000000     3.897000000     1.311000000
O    -7.913000000    -0.154000000    -1.629000000
H    -8.471000000    -0.767000000    -1.151000000
H    -8.404000000     0.048000000    -2.425000000
O     2.778000000    -3.769000000    -3.681000000
H     2.437000000    -3.659000000    -4.568000000
H     2.564000000    -2.949000000    -3.237000000
O     5.629000000     2.273000000     4.315000000
H     5.755000000     2.525000000     3.400000000
H     6.406000000     2.606000000     4.764000000
O    -8.320000000    -0.080000000     1.843000000
H    -7.367000000    -0.156000000     1.898000000
H    -8.602000000    -0.900000000     1.438000000
O    -3.751000000    -5.337000000     2.578000000
H    -3.754000000    -4.599000000     3.187000000
H    -3.328000000    -4.995000000     1.790000000
O    -0.990000000    -5.791000000    -4.704000000
H    -0.860000000    -5.130000000    -4.024000000
H    -0.752000000    -5.348000000    -5.518000000
O     1.291000000    -4.818000000    -1.239000000
H     1.272000000    -4.815000000    -2.196000000
H     1.891000000    -5.530000000    -1.014000000
O    -2.288000000     0.792000000     4.330000000
H    -1.850000000     0.148000000     4.886000000
H    -3.010000000     1.121000000     4.866000000
O     5.243000000    -1.756000000    -3.577000000
H     4.297000000    -1.609000000    -3.571000000
H     5.535000000    -1.400000000    -4.416000000
O    -4.951000000     1.049000000     0.993000000
H    -4.558000000     0.285000000     0.571000000
H    -4.490000000     1.796000000     0.612000000
O     5.653000000    -1.402000000    -0.768000000
H     5.704000000    -2.236000000    -0.300000000
H     5.239000000    -1.621000000    -1.603000000
O    -1.002000000     4.456000000     1.578000000
H    -1.607000000     5.095000000     1.954000000
H    -0.987000000     3.738000000     2.211000000
O     2.782000000     1.479000000    -2.701000000
H     2.385000000     2.228000000    -2.255000000
H     3.692000000     1.479000000    -2.403000000
O     3.574000000     0.618000000     4.501000000
H     3.219000000     0.612000000     3.612000000
H     4.208000000     1.335000000     4.501000000
O     8.104000000    -0.123000000     1.050000000
H     7.385000000    -0.117000000     1.682000000
H     8.683000000    -0.823000000     1.353000000
O     5.415000000     1.560000000    -1.907000000
H     6.252000000     1.873000000    -1.564000000
H     5.380000000     0.639000000    -1.649000000
O    -2.170000000    -7.327000000    -1.051000000
H    -1.655000000    -8.060000000    -0.714000000
H    -1.917000000    -6.584000000    -0.504000000
O    -7.235000000     2.125000000    -0.395000000
H    -7.463000000     1.421000000    -1.002000000
H    -6.488000000     1.785000000     0.097000000
O    -0.762000000     3.022000000     4.092000000
H    -0.790000000     3.387000000     4.976000000
H    -1.255000000     2.204000000     4.156000000
O    -1.269000000    -4.788000000     0.038000000
H    -1.670000000    -3.919000000     0.021000000
H    -0.533000000    -4.724000000    -0.570000000
O    -4.207000000    -2.101000000    -3.413000000
H    -5.089000000    -2.401000000    -3.190000000
H    -3.684000000    -2.298000000    -2.636000000
O     2.026000000     4.092000000    -1.690000000
H     1.122000000     3.979000000    -1.982000000
H     2.453000000     4.557000000    -2.409000000
O    -5.139000000    -7.038000000    -1.085000000
H    -5.002000000    -6.095000000    -0.999000000
H    -4.489000000    -7.317000000    -1.730000000
O     0.559000000    -2.009000000    -5.438000000
H     1.050000000    -1.447000000    -6.037000000
H     0.454000000    -2.833000000    -5.914000000
O    -3.269000000    -2.878000000     4.309000000
H    -2.552000000    -2.398000000     4.724000000
H    -3.687000000    -2.235000000     3.736000000
O    -3.807000000    -4.185000000    -5.172000000
H    -3.141000000    -4.783000000    -4.834000000
H    -3.895000000    -3.515000000    -4.494000000
O     5.599000000    -0.159000000     2.064000000
H     5.820000000    -1.044000000     1.777000000
H     5.342000000     0.297000000     1.262000000
O     2.666000000    -1.136000000    -3.630000000
H     2.682000000    -0.308000000    -3.151000000
H     1.797000000    -1.166000000    -4.029000000
O     0.189000000    -0.784000000     3.037000000
H    -0.400000000    -1.012000000     3.756000000
H    -0.264000000    -0.082000000     2.571000000
O    -3.851000000     3.451000000     0.295000000
H    -2.920000000     3.550000000     0.100000000
H    -4.272000000     4.173000000    -0.172000000
O    -2.608000000     1.054000000    -4.590000000
H    -1.893000000     0.851000000    -3.988000000
H    -3.402000000     0.851000000    -4.096000000
O    -6.954000000    -3.239000000    -2.831000000
H    -7.111000000    -4.153000000    -2.594000000
H    -7.302000000    -3.159000000    -3.719000000
O     3.937000000     3.342000000     6.092000000
H     4.676000000     2.852000000     5.732000000
H     3.294000000     3.361000000     5.384000000
O     4.006000000     6.579000000     1.239000000
H     3.659000000     6.565000000     2.131000000
H     3.600000000     5.825000000     0.812000000
O     5.690000000     3.583000000    -3.639000000
H     5.333000000     3.102000000    -2.892000000
H     4.950000000     3.676000000    -4.239000000
O    -6.353000000    -2.713000000     2.503000000
H    -6.177000000    -2.576000000     1.572000000
H    -5.997000000    -1.935000000     2.931000000
O    -5.321000000    -0.429000000     3.401000000
H    -5.245000000     0.260000000     2.740000000
H    -5.030000000    -0.014000000     4.213000000
O    -4.467000000     0.705000000    -2.363000000
H    -5.049000000     0.354000000    -3.038000000
H    -4.322000000    -0.030000000    -1.766000000
O    -4.610000000    -4.377000000    -0.881000000
H    -5.209000000    -3.732000000    -0.506000000
H    -3.872000000    -3.860000000    -1.203000000
O    -0.503000000    -3.464000000    -3.351000000
H    -0.223000000    -2.727000000    -3.894000000
H    -1.220000000    -3.113000000    -2.824000000
O    -3.944000000     3.492000000    -2.839000000
H    -4.188000000     3.464000000    -1.914000000
H    -3.618000000     2.612000000    -3.027000000
