161
-3017.66022
C     0.317000000    -1.381000000     0.427000000
H     0.661000000    -2.302000000     0.890000000
C     0.958000000    -0.229000000     0.904000000
H     1.743000000    -0.334000000     1.649000000
C     0.553000000     1.011000000     0.444000000
C     1.170000000     2.303000000     0.971000000
H     1.585000000     2.795000000     0.089000000
H     0.444000000     3.001000000     1.394000000
H     1.974000000     2.038000000     1.660000000
C    -0.438000000     1.111000000    -0.590000000
H    -0.785000000     2.131000000    -0.742000000
C    -1.104000000    -0.094000000    -1.017000000
H    -1.955000000     0.034000000    -1.682000000
C    -0.704000000    -1.331000000    -0.559000000
C    -1.303000000    -2.563000000    -1.139000000
O    -2.157000000    -2.564000000    -1.988000000
O    -0.959000000    -3.631000000    -0.712000000
O    -1.835000000     6.336000000     3.635000000
H    -2.538000000     6.180000000     4.265000000
H    -1.205000000     6.880000000     4.108000000
O     0.853000000     0.342000000     5.357000000
H     0.351000000     1.080000000     5.011000000
H     1.115000000    -0.153000000     4.581000000
O    -3.655000000     0.163000000     0.663000000
H    -2.737000000     0.110000000     0.395000000
H    -4.063000000     0.729000000     0.007000000
O    -2.193000000     5.162000000    -4.206000000
H    -1.518000000     4.928000000    -3.569000000
H    -2.278000000     4.387000000    -4.761000000
O    -3.165000000     1.502000000    -4.098000000
H    -3.063000000     0.551000000    -4.116000000
H    -2.276000000     1.837000000    -3.975000000
O    -1.917000000     3.771000000     2.878000000
H    -1.100000000     3.388000000     3.197000000
H    -1.807000000     4.713000000     3.010000000
O    -1.110000000    -1.640000000    -6.757000000
H    -1.342000000    -1.502000000    -5.839000000
H    -0.682000000    -2.496000000    -6.770000000
O     5.497000000     1.713000000     1.933000000
H     5.854000000     2.368000000     2.532000000
H     5.098000000     2.225000000     1.229000000
O     1.910000000    -2.781000000    -2.343000000
H     1.188000000    -2.976000000    -1.746000000
H     2.635000000    -3.320000000    -2.027000000
O     2.400000000    -3.119000000     6.499000000
H     2.102000000    -4.002000000     6.280000000
H     2.602000000    -2.718000000     5.654000000
O    -0.241000000    -5.513000000    -5.342000000
H     0.288000000    -6.126000000    -4.831000000
H    -0.924000000    -5.223000000    -4.737000000
O     0.708000000    -6.899000000     1.477000000
H     0.606000000    -6.865000000     0.526000000
H     1.107000000    -6.059000000     1.705000000
O    -6.528000000    -0.666000000     0.533000000
H    -6.865000000    -0.031000000    -0.099000000
H    -5.774000000    -1.062000000     0.097000000
O    -4.776000000    -2.836000000    -5.947000000
H    -5.408000000    -2.420000000    -6.534000000
H    -4.265000000    -3.412000000    -6.515000000
O    -0.176000000    -6.185000000    -0.916000000
H     0.352000000    -6.186000000    -1.714000000
H    -0.432000000    -5.270000000    -0.800000000
O     3.015000000     4.433000000    -2.447000000
H     2.319000000     4.763000000    -1.878000000
H     3.357000000     5.212000000    -2.884000000
O    -0.706000000     4.655000000    -1.810000000
H    -1.297000000     4.492000000    -1.075000000
H    -0.535000000     3.788000000    -2.177000000
O    -2.623000000    -7.756000000    -0.398000000
H    -1.889000000    -7.401000000    -0.901000000
H    -2.404000000    -7.561000000     0.514000000
O     0.487000000    -7.208000000    -3.421000000
H    -0.343000000    -7.679000000    -3.342000000
H     1.152000000    -7.897000000    -3.436000000
O    -0.634000000     7.554000000    -1.283000000
H    -0.694000000     6.647000000    -1.581000000
H    -0.535000000     7.488000000    -0.333000000
O     4.596000000     3.659000000     0.346000000
H     5.094000000     4.435000000     0.089000000
H     3.680000000     3.916000000     0.243000000
O    -4.299000000    -2.034000000     2.173000000
H    -4.255000000    -1.374000000     1.481000000
H    -5.230000000    -2.245000000     2.243000000
O     2.183000000     1.865000000    -2.439000000
H     2.819000000     1.382000000    -1.910000000
H     2.579000000     2.727000000    -2.561000000
O    -1.270000000    -3.649000000     1.904000000
H    -1.909000000    -2.937000000     1.863000000
H    -1.233000000    -3.989000000     1.010000000
O     1.537000000     6.641000000     1.480000000
H     1.830000000     6.277000000     2.316000000
H     2.346000000     6.810000000     0.996000000
O    -1.174000000     7.526000000     1.320000000
H    -1.598000000     6.854000000     1.853000000
H    -0.251000000     7.483000000     1.569000000
O     5.852000000    -3.593000000     3.762000000
H     5.060000000    -3.441000000     3.246000000
H     6.311000000    -4.291000000     3.296000000
O     3.065000000     3.629000000     3.822000000
H     2.978000000     4.582000000     3.836000000
H     3.799000000     3.464000000     3.230000000
O     4.580000000     1.149000000    -1.142000000
H     4.615000000     2.091000000    -0.972000000
H     5.398000000     0.809000000    -0.780000000
O    -2.278000000    -2.239000000     4.412000000
H    -3.015000000    -2.078000000     3.823000000
H    -1.844000000    -3.010000000     4.046000000
O    -4.112000000     1.553000000     2.972000000
H    -3.953000000     1.021000000     2.192000000
H    -3.350000000     2.129000000     3.028000000
O    -4.408000000    -4.798000000    -0.038000000
H    -4.608000000    -5.614000000    -0.497000000
H    -3.780000000    -5.052000000     0.638000000
O    -4.908000000    -2.405000000    -0.903000000
H    -4.839000000    -3.164000000    -0.324000000
H    -4.076000000    -2.390000000    -1.377000000
O     1.363000000    -4.594000000     2.923000000
H     1.370000000    -4.817000000     3.854000000
H     0.440000000    -4.441000000     2.720000000
O    -2.586000000     4.231000000     0.140000000
H    -3.540000000     4.269000000     0.065000000
H    -2.424000000     4.122000000     1.077000000
O    -0.467000000     2.404000000    -3.756000000
H     0.305000000     2.075000000    -3.294000000
H    -0.137000000     2.669000000    -4.615000000
O     4.509000000    -1.870000000     0.354000000
H     3.789000000    -1.895000000    -0.276000000
H     5.250000000    -1.522000000    -0.142000000
O    -6.134000000    -2.031000000    -3.379000000
H    -5.666000000    -2.272000000    -4.178000000
H    -5.457000000    -2.008000000    -2.702000000
O     1.435000000    -0.480000000    -3.722000000
H     1.580000000     0.131000000    -3.000000000
H     1.282000000    -1.323000000    -3.296000000
O     2.960000000    -2.258000000     3.858000000
H     3.711000000    -1.706000000     3.641000000
H     2.917000000    -2.896000000     3.146000000
O     4.962000000    -0.955000000     2.822000000
H     5.321000000    -0.078000000     2.952000000
H     4.778000000    -1.002000000     1.884000000
O     0.438000000     3.118000000     4.452000000
H     1.348000000     3.260000000     4.192000000
H     0.334000000     3.636000000     5.251000000
O    -2.763000000    -1.284000000    -4.236000000
H    -3.222000000    -1.916000000    -4.789000000
H    -2.500000000    -1.787000000    -3.466000000
O    -5.601000000     2.523000000    -5.219000000
H    -5.894000000     1.673000000    -5.547000000
H    -4.752000000     2.345000000    -4.815000000
O    -5.565000000    -5.716000000    -2.512000000
H    -4.690000000    -5.327000000    -2.490000000
H    -5.991000000    -5.305000000    -3.264000000
O     4.130000000    -4.880000000     1.937000000
H     4.196000000    -4.945000000     0.984000000
H     3.197000000    -4.992000000     2.120000000
O    -2.140000000    -4.665000000    -3.569000000
H    -1.817000000    -5.383000000    -3.025000000
H    -2.210000000    -3.923000000    -2.968000000
O    -4.323000000     1.730000000    -1.355000000
H    -3.949000000     1.615000000    -2.229000000
H    -4.471000000     2.672000000    -1.280000000
