161
-3031.03458
C    -0.524000000    -1.390000000     0.207000000
H    -0.691000000    -2.457000000     0.333000000
C     0.682000000    -0.913000000     0.769000000
H     1.298000000    -1.584000000     1.362000000
C     1.019000000     0.418000000     0.571000000
C     2.320000000     1.007000000     1.133000000
H     3.135000000     0.298000000     1.293000000
H     2.612000000     1.748000000     0.386000000
H     2.086000000     1.542000000     2.056000000
C     0.182000000     1.206000000    -0.192000000
H     0.507000000     2.223000000    -0.394000000
C    -0.927000000     0.706000000    -0.823000000
H    -1.457000000     1.356000000    -1.515000000
C    -1.361000000    -0.606000000    -0.583000000
C    -2.623000000    -1.062000000    -1.292000000
O    -3.371000000    -0.270000000    -1.841000000
O    -2.881000000    -2.216000000    -1.464000000
O     4.083000000     3.900000000     1.342000000
H     4.953000000     4.296000000     1.385000000
H     4.072000000     3.268000000     2.061000000
O     2.250000000     5.676000000     4.062000000
H     2.494000000     5.013000000     4.708000000
H     1.645000000     6.253000000     4.529000000
O    -7.602000000    -1.406000000    -4.412000000
H    -7.144000000    -1.521000000    -3.579000000
H    -7.005000000    -1.772000000    -5.065000000
O    -0.040000000     1.534000000    -4.104000000
H     0.053000000     0.674000000    -4.513000000
H     0.859000000     1.846000000    -3.995000000
O     1.063000000    -3.100000000     4.793000000
H     1.831000000    -3.441000000     5.251000000
H     1.133000000    -2.149000000     4.884000000
O     6.040000000     1.014000000     3.790000000
H     6.671000000     0.512000000     4.307000000
H     6.385000000     1.907000000     3.793000000
O    -0.143000000    -6.995000000    -2.085000000
H    -0.674000000    -6.232000000    -1.859000000
H     0.572000000    -6.986000000    -1.449000000
O    -1.779000000    -2.702000000    -6.134000000
H    -2.525000000    -2.844000000    -5.551000000
H    -1.931000000    -3.298000000    -6.867000000
O    -2.598000000    -5.667000000    -3.997000000
H    -1.921000000    -5.942000000    -4.616000000
H    -3.338000000    -6.246000000    -4.180000000
O    -1.775000000    -0.399000000     2.760000000
H    -1.539000000    -0.275000000     1.841000000
H    -1.208000000     0.206000000     3.237000000
O     2.227000000     0.842000000     7.223000000
H     3.161000000     0.652000000     7.131000000
H     1.818000000     0.403000000     6.477000000
O     4.568000000    -1.118000000    -1.144000000
H     4.331000000    -1.489000000    -0.294000000
H     3.736000000    -1.029000000    -1.607000000
O    -6.001000000    -1.784000000    -2.201000000
H    -5.059000000    -1.760000000    -2.365000000
H    -6.129000000    -1.206000000    -1.449000000
O     2.089000000    -0.441000000    -2.638000000
H     1.635000000    -1.265000000    -2.814000000
H     1.419000000     0.126000000    -2.256000000
O    -4.654000000    -2.967000000     0.483000000
H    -4.186000000    -3.654000000     0.958000000
H    -4.148000000    -2.846000000    -0.321000000
O     2.595000000     3.158000000    -4.001000000
H     2.988000000     3.309000000    -3.141000000
H     3.168000000     3.623000000    -4.611000000
O    -7.846000000     1.421000000    -1.478000000
H    -7.032000000     1.280000000    -0.995000000
H    -8.307000000     0.584000000    -1.419000000
O     3.234000000     1.464000000     4.527000000
H     3.144000000     2.282000000     5.018000000
H     4.179000000     1.322000000     4.470000000
O    -1.675000000    -3.285000000     3.497000000
H    -1.669000000    -2.370000000     3.215000000
H    -0.987000000    -3.336000000     4.161000000
O    -1.107000000     3.682000000    -2.360000000
H    -0.548000000     4.202000000    -2.938000000
H    -1.136000000     2.818000000    -2.770000000
O     3.866000000    -2.603000000     1.345000000
H     3.250000000    -3.330000000     1.430000000
H     3.902000000    -2.216000000     2.220000000
O    -2.974000000    -4.948000000     1.889000000
H    -2.587000000    -4.247000000     2.414000000
H    -2.233000000    -5.342000000     1.430000000
O    -0.547000000    -5.377000000     0.594000000
H     0.235000000    -5.010000000     1.006000000
H    -0.571000000    -4.975000000    -0.274000000
O     6.460000000     2.465000000    -1.226000000
H     7.225000000     1.894000000    -1.168000000
H     6.341000000     2.611000000    -2.165000000
O    -5.959000000    -3.492000000    -5.580000000
H    -5.593000000    -4.155000000    -6.164000000
H    -5.211000000    -3.182000000    -5.070000000
O    -4.861000000     1.704000000    -0.718000000
H    -4.038000000     1.445000000    -1.132000000
H    -4.691000000     2.582000000    -0.377000000
O    -1.333000000     1.901000000     4.536000000
H    -2.057000000     1.656000000     5.112000000
H    -1.723000000     2.503000000     3.903000000
O    -2.285000000     2.230000000    -5.719000000
H    -2.236000000     3.133000000    -6.033000000
H    -1.371000000     1.956000000    -5.636000000
O     3.746000000     3.193000000    -1.453000000
H     3.637000000     3.338000000    -0.513000000
H     4.591000000     2.750000000    -1.531000000
O     1.363000000     4.712000000     1.534000000
H     1.611000000     5.051000000     2.394000000
H     2.140000000     4.244000000     1.227000000
O    -5.841000000     0.692000000    -5.910000000
H    -5.207000000     1.006000000    -5.266000000
H    -6.693000000     0.840000000    -5.499000000
O     1.182000000    -0.280000000     4.770000000
H     0.798000000     0.521000000     4.414000000
H     2.092000000    -0.262000000     4.474000000
O     1.720000000    -4.383000000     2.091000000
H     2.088000000    -5.179000000     2.474000000
H     1.433000000    -3.865000000     2.844000000
O    -1.379000000     4.337000000     0.675000000
H    -1.330000000     4.245000000    -0.277000000
H    -0.470000000     4.273000000     0.969000000
O     3.959000000    -1.655000000     3.882000000
H     3.913000000    -2.456000000     4.404000000
H     4.423000000    -1.031000000     4.441000000
O    -7.587000000    -3.819000000    -0.793000000
H    -7.077000000    -4.629000000    -0.781000000
H    -7.072000000    -3.220000000    -1.334000000
O     0.569000000     5.150000000    -4.055000000
H     1.296000000     4.577000000    -3.812000000
H     0.549000000     5.118000000    -5.011000000
O    -3.445000000     3.372000000     2.679000000
H    -2.708000000     3.736000000     2.188000000
H    -4.189000000     3.925000000     2.440000000
O     6.735000000    -3.294000000     2.457000000
H     5.932000000    -2.892000000     2.123000000
H     7.043000000    -2.688000000     3.131000000
O    -6.265000000    -0.500000000     0.266000000
H    -5.701000000    -1.075000000     0.783000000
H    -5.658000000     0.067000000    -0.209000000
O    -4.836000000    -1.654000000     2.814000000
H    -4.490000000    -2.070000000     2.024000000
H    -4.256000000    -0.907000000     2.964000000
O    -3.613000000    -2.907000000    -4.133000000
H    -3.291000000    -2.197000000    -3.578000000
H    -3.425000000    -3.703000000    -3.636000000
O    -1.211000000    -4.434000000    -1.947000000
H    -1.694000000    -4.757000000    -2.708000000
H    -1.641000000    -3.609000000    -1.723000000
O    -5.488000000     3.913000000    -4.424000000
H    -5.001000000     4.462000000    -5.038000000
H    -5.076000000     3.052000000    -4.493000000
O     1.039000000    -3.053000000    -3.341000000
H     0.430000000    -3.687000000    -2.960000000
H     1.865000000    -3.530000000    -3.416000000
O    -2.946000000    -7.540000000    -1.847000000
H    -3.119000000    -6.675000000    -2.219000000
H    -2.072000000    -7.766000000    -2.165000000
O    -4.174000000     1.390000000    -3.880000000
H    -4.232000000     0.889000000    -3.066000000
H    -3.235000000     1.464000000    -4.050000000
O     6.337000000    -0.048000000     0.761000000
H     5.883000000     0.394000000     1.478000000
H     5.659000000    -0.193000000     0.101000000
