161
-3030.00393
C    -1.223000000    -0.618000000     0.607000000
H    -2.057000000    -1.164000000     1.041000000
C     0.077000000    -1.137000000     0.713000000
H     0.156000000    -2.078000000     1.252000000
C     1.161000000    -0.508000000     0.082000000
C     2.538000000    -1.038000000     0.266000000
H     3.020000000    -1.260000000    -0.688000000
H     3.142000000    -0.342000000     0.853000000
H     2.529000000    -2.020000000     0.742000000
C     0.930000000     0.673000000    -0.713000000
H     1.707000000     1.207000000    -1.254000000
C    -0.352000000     1.231000000    -0.754000000
H    -0.544000000     2.126000000    -1.340000000
C    -1.465000000     0.587000000    -0.106000000
C    -2.827000000     1.262000000    -0.198000000
O    -2.931000000     2.464000000    -0.480000000
O    -3.866000000     0.608000000    -0.022000000
O    -7.021000000    -0.557000000    -2.914000000
H    -7.683000000     0.001000000    -3.321000000
H    -6.750000000    -0.076000000    -2.132000000
O     4.891000000    -1.326000000     2.323000000
H     5.223000000    -0.437000000     2.198000000
H     4.016000000    -1.311000000     1.936000000
O     0.038000000     5.356000000     0.535000000
H     0.400000000     4.545000000     0.894000000
H    -0.906000000     5.275000000     0.667000000
O    -7.879000000     3.310000000    -0.143000000
H    -8.588000000     3.941000000    -0.018000000
H    -7.401000000     3.634000000    -0.906000000
O     0.704000000     2.906000000     1.569000000
H     1.490000000     2.774000000     2.099000000
H     0.612000000     2.093000000     1.072000000
O     0.612000000    -4.625000000     0.589000000
H     0.126000000    -5.415000000     0.353000000
H     0.593000000    -4.609000000     1.546000000
O    -4.130000000    -2.565000000     4.482000000
H    -4.751000000    -2.617000000     3.756000000
H    -3.985000000    -1.627000000     4.606000000
O     2.397000000     2.212000000    -3.983000000
H     1.750000000     2.890000000    -4.179000000
H     3.236000000     2.607000000    -4.220000000
O     1.799000000    -0.301000000    -3.359000000
H     2.107000000     0.581000000    -3.568000000
H     0.846000000    -0.220000000    -3.320000000
O     2.642000000    -2.956000000    -2.784000000
H     3.370000000    -2.825000000    -3.391000000
H     2.170000000    -2.123000000    -2.792000000
O     3.717000000     0.735000000     5.856000000
H     3.679000000     1.210000000     5.026000000
H     3.612000000     1.411000000     6.525000000
O     4.151000000    -4.101000000     3.315000000
H     4.749000000    -4.676000000     3.792000000
H     4.689000000    -3.349000000     3.066000000
O    -1.116000000     2.202000000    -4.637000000
H    -0.259000000     2.354000000    -5.035000000
H    -1.559000000     3.049000000    -4.691000000
O     4.248000000    -6.791000000     0.955000000
H     4.207000000    -5.917000000     1.344000000
H     4.829000000    -7.283000000     1.535000000
O     6.738000000    -0.713000000    -0.628000000
H     6.297000000    -1.559000000    -0.544000000
H     6.166000000    -0.200000000    -1.199000000
O     0.518000000     6.574000000    -1.926000000
H     0.331000000     6.210000000    -1.060000000
H     1.318000000     6.128000000    -2.205000000
O    -5.991000000    -2.950000000    -2.337000000
H    -6.506000000    -2.187000000    -2.601000000
H    -6.552000000    -3.698000000    -2.540000000
O    -1.738000000     2.933000000     3.691000000
H    -0.941000000     2.822000000     3.173000000
H    -1.430000000     2.980000000     4.596000000
O    -4.117000000     2.607000000     2.536000000
H    -3.342000000     3.101000000     2.802000000
H    -3.930000000     2.334000000     1.637000000
O     1.316000000    -4.519000000     3.187000000
H     1.076000000    -4.850000000     4.052000000
H     2.262000000    -4.383000000     3.237000000
O    -1.437000000    -0.482000000    -3.938000000
H    -2.264000000    -0.297000000    -3.491000000
H    -1.001000000     0.368000000    -3.994000000
O     7.255000000    -1.350000000     3.832000000
H     6.738000000    -1.344000000     4.637000000
H     6.629000000    -1.582000000     3.146000000
O    -5.343000000    -2.819000000     2.208000000
H    -5.178000000    -3.760000000     2.151000000
H    -4.966000000    -2.461000000     1.405000000
O    -1.920000000     6.025000000    -4.439000000
H    -2.556000000     5.354000000    -4.686000000
H    -1.916000000     6.011000000    -3.482000000
O     6.106000000     1.278000000     2.115000000
H     6.817000000     1.650000000     2.635000000
H     6.113000000     1.783000000     1.302000000
O     5.175000000     3.482000000    -2.070000000
H     4.484000000     4.124000000    -2.234000000
H     5.427000000     3.629000000    -1.158000000
O    -7.109000000     2.694000000     2.313000000
H    -7.352000000     3.100000000     1.481000000
H    -6.153000000     2.646000000     2.287000000
O    -1.561000000    -4.149000000    -1.780000000
H    -0.821000000    -4.622000000    -2.162000000
H    -1.158000000    -3.445000000    -1.272000000
O    -5.313000000     2.994000000    -1.613000000
H    -4.975000000     3.780000000    -2.041000000
H    -4.589000000     2.689000000    -1.066000000
O     2.449000000    -6.860000000    -1.774000000
H     2.791000000    -6.256000000    -1.115000000
H     1.504000000    -6.867000000    -1.625000000
O    -6.341000000     0.543000000    -0.398000000
H    -6.674000000     1.420000000    -0.587000000
H    -5.394000000     0.659000000    -0.319000000
O     3.571000000     2.455000000     2.822000000
H     4.370000000     2.035000000     2.505000000
H     3.517000000     3.272000000     2.325000000
O     5.455000000    -3.277000000     0.170000000
H     4.614000000    -3.510000000    -0.221000000
H     5.229000000    -2.693000000     0.894000000
O    -4.345000000    -1.998000000    -0.239000000
H    -4.224000000    -1.085000000     0.024000000
H    -4.898000000    -1.952000000    -1.019000000
O    -3.995000000    -4.999000000    -0.682000000
H    -3.099000000    -4.705000000    -0.847000000
H    -4.523000000    -4.203000000    -0.737000000
O    -3.850000000     0.323000000     4.243000000
H    -3.504000000     0.964000000     3.622000000
H    -3.515000000     0.609000000     5.093000000
O     5.116000000     0.731000000    -2.097000000
H     4.467000000     0.569000000    -2.781000000
H     5.229000000     1.682000000    -2.094000000
O     3.075000000    -4.368000000    -0.498000000
H     2.327000000    -4.338000000     0.099000000
H     2.848000000    -3.754000000    -1.197000000
O    -1.509000000    -1.555000000     6.125000000
H    -2.369000000    -1.961000000     6.016000000
H    -1.019000000    -1.819000000     5.346000000
O    -3.146000000     0.718000000    -5.874000000
H    -3.914000000     0.954000000    -5.354000000
H    -2.478000000     0.494000000    -5.226000000
O    -2.200000000     4.647000000    -2.107000000
H    -2.456000000     3.883000000    -1.591000000
H    -1.650000000     5.162000000    -1.517000000
O     0.847000000     4.368000000    -4.762000000
H     1.534000000     4.668000000    -5.357000000
H     0.145000000     5.011000000    -4.864000000
O    -2.727000000     5.198000000     1.291000000
H    -3.404000000     4.605000000     0.964000000
H    -3.213000000     5.916000000     1.696000000
O    -1.974000000    -5.007000000     1.947000000
H    -1.474000000    -5.703000000     1.521000000
H    -1.766000000    -5.097000000     2.877000000
O    -0.560000000    -2.786000000     3.824000000
H    -1.216000000    -3.483000000     3.801000000
H     0.253000000    -3.212000000     3.552000000
O    -7.587000000    -1.301000000     1.651000000
H    -7.181000000    -0.709000000     1.018000000
H    -6.938000000    -1.992000000     1.783000000
O    -4.070000000    -0.032000000    -2.988000000
H    -4.777000000     0.613000000    -2.951000000
H    -3.927000000    -0.283000000    -2.076000000
O    -3.958000000     4.289000000    -4.783000000
H    -4.215000000     4.866000000    -4.063000000
H    -4.512000000     3.515000000    -4.679000000
