161
-3039.46904
C    -0.591000000    -1.109000000     0.793000000
H    -0.781000000    -1.978000000     1.417000000
C     0.753000000    -0.991000000     0.325000000
H     1.537000000    -1.676000000     0.638000000
C     1.176000000     0.126000000    -0.411000000
C     2.665000000     0.318000000    -0.726000000
H     2.785000000     1.359000000    -1.032000000
H     3.264000000     0.174000000     0.176000000
H     3.031000000    -0.319000000    -1.534000000
C     0.208000000     1.110000000    -0.666000000
H     0.512000000     2.007000000    -1.199000000
C    -1.156000000     0.965000000    -0.305000000
H    -1.865000000     1.674000000    -0.725000000
C    -1.579000000    -0.191000000     0.370000000
C    -2.965000000    -0.439000000     0.839000000
O    -3.677000000     0.544000000     0.816000000
O    -3.309000000    -1.580000000     1.223000000
O     5.031000000     2.477000000     1.290000000
H     4.545000000     1.915000000     1.893000000
H     4.844000000     3.367000000     1.589000000
O     7.174000000    -0.116000000    -0.745000000
H     6.922000000    -1.002000000    -0.484000000
H     8.091000000    -0.041000000    -0.484000000
O    -8.236000000    -1.848000000    -0.527000000
H    -7.582000000    -1.309000000    -0.082000000
H    -9.053000000    -1.357000000    -0.437000000
O    -2.640000000     2.803000000     2.260000000
H    -3.560000000     2.980000000     2.454000000
H    -2.607000000     1.862000000     2.090000000
O     6.061000000     2.267000000    -1.206000000
H     5.818000000     2.441000000    -0.297000000
H     6.424000000     1.382000000    -1.193000000
O     6.209000000    -2.535000000    -0.058000000
H     5.475000000    -3.066000000    -0.365000000
H     5.943000000    -2.239000000     0.813000000
O    -0.715000000    -1.293000000    -2.534000000
H    -1.570000000    -1.723000000    -2.515000000
H    -0.509000000    -1.127000000    -1.614000000
O     0.980000000    -4.973000000    -0.647000000
H     0.076000000    -5.125000000    -0.373000000
H     1.339000000    -5.850000000    -0.786000000
O     2.243000000    -6.749000000     1.804000000
H     2.467000000    -5.831000000     1.957000000
H     3.056000000    -7.225000000     1.970000000
O     2.699000000     4.078000000    -1.435000000
H     3.220000000     3.310000000    -1.200000000
H     2.488000000     4.489000000    -0.597000000
O    -2.246000000    -3.891000000     0.029000000
H    -2.715000000    -3.199000000     0.495000000
H    -2.202000000    -3.583000000    -0.876000000
O    -2.148000000     1.866000000    -5.528000000
H    -2.261000000     2.257000000    -6.395000000
H    -1.441000000     2.372000000    -5.128000000
O    -5.813000000    -3.529000000    -1.175000000
H    -5.145000000    -2.844000000    -1.169000000
H    -6.613000000    -3.087000000    -0.889000000
O    -2.816000000     4.930000000     3.971000000
H    -2.496000000     4.375000000     3.259000000
H    -2.121000000     5.575000000     4.102000000
O     2.939000000     0.027000000    -4.440000000
H     3.587000000     0.730000000    -4.484000000
H     3.435000000    -0.737000000    -4.145000000
O     3.608000000     1.036000000     3.009000000
H     2.690000000     0.835000000     3.188000000
H     3.980000000     1.242000000     3.866000000
O    -2.952000000    -6.080000000     1.456000000
H    -2.849000000    -5.189000000     1.120000000
H    -2.195000000    -6.554000000     1.114000000
O    -1.043000000     3.497000000    -3.858000000
H    -1.030000000     4.033000000    -3.065000000
H    -0.174000000     3.095000000    -3.889000000
O     7.381000000     1.111000000     2.059000000
H     6.920000000     0.274000000     2.003000000
H     6.831000000     1.722000000     1.569000000
O     6.460000000    -1.385000000    -4.255000000
H     6.753000000    -2.015000000    -4.913000000
H     5.794000000    -1.854000000    -3.752000000
O    -5.012000000     1.031000000     5.404000000
H    -4.183000000     1.027000000     5.883000000
H    -4.871000000     0.426000000     4.676000000
O    -6.824000000    -4.986000000     1.499000000
H    -7.774000000    -4.902000000     1.571000000
H    -6.509000000    -4.085000000     1.427000000
O    -3.296000000    -0.845000000    -4.154000000
H    -2.554000000    -0.256000000    -4.024000000
H    -3.293000000    -1.030000000    -5.093000000
O     1.901000000     4.268000000    -4.057000000
H     2.440000000     5.032000000    -3.851000000
H     1.719000000     3.867000000    -3.207000000
O     1.238000000    -3.122000000     5.862000000
H     1.105000000    -3.785000000     6.539000000
H     0.843000000    -3.499000000     5.075000000
O    -5.879000000     1.974000000     0.223000000
H    -5.054000000     1.708000000     0.629000000
H    -5.673000000     2.797000000    -0.220000000
O    -6.979000000     1.088000000     2.472000000
H    -6.660000000     1.480000000     1.659000000
H    -7.416000000     0.283000000     2.194000000
O     0.365000000    -0.606000000    -5.096000000
H    -0.002000000    -0.568000000    -4.213000000
H     1.271000000    -0.314000000    -4.991000000
O    -5.843000000    -1.263000000     0.561000000
H    -5.077000000    -1.659000000     0.975000000
H    -5.649000000    -0.326000000     0.546000000
O     5.369000000    -1.229000000     2.155000000
H     4.744000000    -0.536000000     2.367000000
H     5.053000000    -1.993000000     2.639000000
O    -4.558000000     4.154000000    -0.949000000
H    -4.513000000     3.830000000    -1.848000000
H    -3.644000000     4.276000000    -0.692000000
O    -4.274000000    -1.535000000     3.749000000
H    -3.461000000    -1.546000000     4.254000000
H    -3.991000000    -1.610000000     2.838000000
O     2.279000000    -3.988000000     2.185000000
H     2.454000000    -3.740000000     1.277000000
H     3.077000000    -3.747000000     2.656000000
O     4.404000000    -3.322000000     3.666000000
H     4.522000000    -2.990000000     4.556000000
H     4.978000000    -4.087000000     3.617000000
O     1.243000000    -0.762000000     4.468000000
H     1.423000000    -1.670000000     4.713000000
H     0.308000000    -0.751000000     4.263000000
O    -3.233000000    -2.617000000    -2.177000000
H    -3.454000000    -3.534000000    -2.341000000
H    -3.445000000    -2.169000000    -2.996000000
O     3.950000000    -1.070000000    -6.983000000
H     3.768000000    -0.433000000    -7.674000000
H     3.534000000    -0.703000000    -6.203000000
O     3.855000000    -2.731000000    -3.829000000
H     3.137000000    -2.805000000    -3.200000000
H     4.043000000    -3.634000000    -4.085000000
O     0.832000000     4.636000000     1.027000000
H     0.150000000     3.976000000     0.905000000
H     0.750000000     4.899000000     1.943000000
O    -6.890000000    -2.280000000     4.241000000
H    -6.000000000    -1.944000000     4.138000000
H    -7.447000000    -1.603000000     3.858000000
O     1.604000000    -2.940000000    -2.325000000
H     1.239000000    -3.533000000    -1.668000000
H     0.927000000    -2.273000000    -2.448000000
O    -1.656000000    -1.805000000     4.882000000
H    -1.137000000    -2.515000000     4.504000000
H    -1.160000000    -1.528000000     5.651000000
O     3.761000000    -4.868000000    -0.525000000
H     2.868000000    -4.627000000    -0.774000000
H     3.756000000    -5.826000000    -0.519000000
O    -5.792000000     0.622000000    -2.953000000
H    -5.240000000    -0.156000000    -3.032000000
H    -5.174000000     1.345000000    -2.850000000
O    -0.136000000    -4.001000000     3.418000000
H     0.789000000    -4.111000000     3.196000000
H    -0.604000000    -4.247000000     2.620000000
O    -4.226000000     3.176000000    -3.509000000
H    -3.491000000     3.057000000    -4.111000000
H    -4.892000000     3.626000000    -4.029000000
O    -0.887000000     5.271000000    -1.991000000
H    -1.707000000     5.457000000    -1.533000000
H    -0.312000000     6.000000000    -1.757000000
O     5.316000000     1.230000000    -3.884000000
H     5.351000000     1.413000000    -2.945000000
H     5.774000000     0.396000000    -3.983000000
