161
-3045.64088
C    -0.499000000    -0.367000000    -1.270000000
H    -0.860000000    -0.877000000    -2.160000000
C    -0.247000000    -1.193000000    -0.269000000
H    -0.506000000    -2.244000000    -0.377000000
C     0.228000000    -0.789000000     0.931000000
C     0.779000000    -1.728000000     1.993000000
H     1.820000000    -1.936000000     1.736000000
H     0.618000000    -1.217000000     2.944000000
H     0.173000000    -2.629000000     2.106000000
C     0.428000000     0.573000000     1.078000000
H     0.862000000     0.885000000     2.025000000
C     0.002000000     1.515000000     0.073000000
H     0.236000000     2.549000000     0.312000000
C    -0.467000000     1.024000000    -1.174000000
C    -0.766000000     1.908000000    -2.325000000
O    -0.683000000     3.133000000    -2.270000000
O    -1.112000000     1.387000000    -3.347000000
O     2.731000000     2.473000000    -4.531000000
H     3.066000000     1.601000000    -4.325000000
H     3.032000000     2.641000000    -5.424000000
O     3.111000000     1.645000000    -0.160000000
H     2.314000000     1.451000000     0.333000000
H     2.937000000     1.306000000    -1.038000000
O     2.857000000     7.092000000    -3.372000000
H     3.157000000     7.121000000    -4.281000000
H     2.061000000     6.561000000    -3.400000000
O     2.507000000     0.331000000     5.840000000
H     3.445000000     0.145000000     5.788000000
H     2.315000000     0.818000000     5.038000000
O     1.476000000     5.476000000    -0.154000000
H     1.582000000     5.005000000    -0.980000000
H     1.789000000     4.865000000     0.513000000
O     2.628000000     4.146000000     4.495000000
H     3.035000000     4.863000000     4.009000000
H     3.285000000     3.893000000     5.144000000
O    -1.759000000     6.652000000    -0.384000000
H    -1.501000000     6.118000000    -1.136000000
H    -1.758000000     6.042000000     0.354000000
O     0.952000000    -1.757000000     7.019000000
H     1.582000000    -1.158000000     6.618000000
H     1.491000000    -2.455000000     7.392000000
O    -2.515000000     2.197000000     2.511000000
H    -2.617000000     1.339000000     2.098000000
H    -2.430000000     2.807000000     1.778000000
O     0.148000000     3.140000000     4.885000000
H     0.121000000     3.677000000     5.676000000
H     1.031000000     3.269000000     4.538000000
O    -3.577000000    -3.492000000    -4.720000000
H    -3.666000000    -2.603000000    -5.065000000
H    -3.515000000    -4.046000000    -5.499000000
O    -0.375000000     1.821000000    -8.224000000
H     0.161000000     1.720000000    -7.438000000
H    -1.251000000     2.017000000    -7.893000000
O    -0.949000000    -5.124000000     2.574000000
H    -1.247000000    -4.330000000     3.019000000
H    -1.052000000    -5.816000000     3.227000000
O    -2.177000000     0.548000000     4.761000000
H    -1.220000000     0.535000000     4.772000000
H    -2.400000000     1.220000000     4.117000000
O    -2.844000000     2.385000000    -7.398000000
H    -3.740000000     2.682000000    -7.555000000
H    -2.594000000     2.803000000    -6.574000000
O    -3.962000000    -2.077000000    -1.097000000
H    -4.468000000    -1.585000000    -1.744000000
H    -3.533000000    -1.405000000    -0.568000000
O     2.721000000     0.263000000    -2.370000000
H     1.907000000    -0.239000000    -2.410000000
H     3.407000000    -0.398000000    -2.275000000
O     0.077000000    -1.447000000    -6.183000000
H     0.885000000    -1.959000000    -6.169000000
H     0.336000000    -0.582000000    -5.867000000
O     4.374000000    -2.365000000     0.861000000
H     3.774000000    -2.419000000     0.117000000
H     5.246000000    -2.415000000     0.469000000
O     1.044000000    -5.262000000     0.348000000
H     0.621000000    -5.206000000     1.205000000
H     0.923000000    -6.174000000     0.081000000
O    -2.754000000     3.025000000    -4.764000000
H    -2.090000000     2.692000000    -4.161000000
H    -3.433000000     3.389000000    -4.196000000
O    -2.891000000    -0.275000000     0.904000000
H    -3.139000000    -0.832000000     1.642000000
H    -1.973000000    -0.490000000     0.740000000
O    -1.441000000    -2.865000000     5.062000000
H    -0.706000000    -2.253000000     5.095000000
H    -1.358000000    -3.382000000     5.864000000
O     5.491000000    -0.346000000     5.582000000
H     5.247000000    -0.899000000     4.839000000
H     6.259000000     0.138000000     5.278000000
O    -4.662000000    -3.579000000     1.457000000
H    -4.460000000    -3.103000000     0.652000000
H    -5.264000000    -4.270000000     1.183000000
O     4.556000000    -2.023000000     3.677000000
H     4.042000000    -2.761000000     4.005000000
H     4.467000000    -2.074000000     2.725000000
O    -2.826000000    -2.106000000     2.926000000
H    -3.277000000    -2.904000000     2.651000000
H    -2.489000000    -2.309000000     3.799000000
O     5.573000000     3.461000000    -0.966000000
H     5.284000000     4.279000000    -1.371000000
H     4.762000000     3.017000000    -0.718000000
O    -4.981000000     4.589000000    -3.500000000
H    -4.820000000     4.960000000    -4.368000000
H    -4.985000000     5.346000000    -2.914000000
O     2.849000000    -4.156000000     3.876000000
H     2.068000000    -4.368000000     3.364000000
H     3.003000000    -4.934000000     4.411000000
O     2.372000000     3.588000000     1.665000000
H     2.467000000     3.440000000     2.605000000
H     2.935000000     2.928000000     1.260000000
O    -2.673000000    -1.172000000    -5.637000000
H    -2.860000000    -0.298000000    -5.296000000
H    -1.722000000    -1.255000000    -5.578000000
O     0.471000000     7.700000000     1.602000000
H     0.245000000     7.125000000     0.872000000
H     0.670000000     8.541000000     1.192000000
O     1.735000000     4.260000000    -2.829000000
H     0.912000000     3.814000000    -2.628000000
H     2.248000000     3.610000000    -3.308000000
O    -2.891000000    -4.270000000    -2.057000000
H    -3.292000000    -3.996000000    -2.882000000
H    -3.086000000    -3.558000000    -1.447000000
O     5.786000000     0.303000000     1.496000000
H     5.622000000     1.071000000     0.947000000
H     6.055000000    -0.378000000     0.879000000
O    -0.943000000    -4.605000000    -4.880000000
H    -1.425000000    -4.500000000    -5.700000000
H    -1.590000000    -4.426000000    -4.198000000
O    -4.373000000     6.611000000    -1.638000000
H    -3.534000000     6.544000000    -1.182000000
H    -4.994000000     6.163000000    -1.063000000
O    -1.198000000    -6.574000000    -1.916000000
H    -1.529000000    -5.683000000    -1.809000000
H    -1.704000000    -7.095000000    -1.293000000
O     2.622000000    -4.014000000    -1.322000000
H     2.084000000    -4.058000000    -2.112000000
H     2.082000000    -4.416000000    -0.641000000
O    -4.321000000     1.602000000    -0.493000000
H    -3.716000000     0.924000000    -0.192000000
H    -4.996000000     1.124000000    -0.974000000
O     1.539000000    -3.830000000    -5.499000000
H     0.638000000    -3.994000000    -5.221000000
H     1.654000000    -4.380000000    -6.274000000
O    -3.425000000     5.070000000     2.045000000
H    -4.311000000     4.887000000     2.356000000
H    -3.394000000     4.685000000     1.169000000
O     0.409000000     1.216000000    -5.580000000
H     1.209000000     1.580000000    -5.201000000
H    -0.273000000     1.416000000    -4.939000000
O    -2.819000000     3.801000000    -0.367000000
H    -3.484000000     3.129000000    -0.520000000
H    -2.146000000     3.626000000    -1.024000000
O     3.267000000     0.813000000     3.058000000
H     4.113000000     0.817000000     2.609000000
H     3.124000000    -0.104000000     3.292000000
O    -1.045000000     5.608000000    -2.790000000
H    -1.123000000     5.581000000    -3.744000000
H    -0.965000000     4.690000000    -2.531000000
O    -3.564000000     0.134000000    -2.857000000
H    -2.728000000     0.345000000    -3.272000000
H    -3.897000000     0.976000000    -2.546000000
