161
-3040.09945
C    -0.795000000    -0.321000000    -1.254000000
H    -1.363000000    -0.659000000    -2.117000000
C    -0.391000000    -1.256000000    -0.267000000
H    -0.591000000    -2.317000000    -0.397000000
C     0.317000000    -0.819000000     0.850000000
C     0.835000000    -1.838000000     1.856000000
H     0.510000000    -1.557000000     2.860000000
H     0.465000000    -2.838000000     1.619000000
H     1.924000000    -1.921000000     1.847000000
C     0.665000000     0.534000000     1.004000000
H     1.260000000     0.911000000     1.832000000
C     0.243000000     1.439000000     0.023000000
H     0.515000000     2.480000000     0.181000000
C    -0.540000000     1.034000000    -1.042000000
C    -0.940000000     2.095000000    -2.060000000
O    -1.046000000     3.280000000    -1.755000000
O    -1.074000000     1.761000000    -3.184000000
O     2.824000000    -0.175000000    -1.131000000
H     3.082000000    -0.689000000    -0.366000000
H     1.959000000     0.167000000    -0.909000000
O     0.891000000     5.206000000    -4.718000000
H     0.141000000     5.673000000    -5.084000000
H     1.623000000     5.445000000    -5.286000000
O    -3.037000000    -3.953000000     5.530000000
H    -2.341000000    -4.390000000     5.040000000
H    -2.873000000    -3.019000000     5.397000000
O     4.013000000    -0.908000000     5.213000000
H     4.776000000    -0.970000000     4.639000000
H     4.119000000    -0.070000000     5.663000000
O     0.590000000    -7.142000000     3.569000000
H     1.042000000    -7.932000000     3.273000000
H     1.286000000    -6.583000000     3.914000000
O    -2.125000000     7.079000000    -4.578000000
H    -2.102000000     6.140000000    -4.394000000
H    -1.735000000     7.163000000    -5.448000000
O     2.117000000    -2.919000000     6.002000000
H     2.933000000    -2.431000000     5.888000000
H     1.463000000    -2.249000000     6.202000000
O    -1.779000000    -7.222000000     0.901000000
H    -1.595000000    -8.098000000     1.242000000
H    -0.995000000    -6.990000000     0.403000000
O     3.756000000     3.563000000     4.194000000
H     3.109000000     4.243000000     4.382000000
H     4.498000000     4.036000000     3.817000000
O     1.622000000     4.036000000    -7.288000000
H     1.067000000     3.396000000    -6.843000000
H     2.470000000     3.965000000    -6.849000000
O     5.055000000    -3.280000000     2.557000000
H     5.086000000    -4.203000000     2.307000000
H     4.138000000    -3.123000000     2.782000000
O    -2.096000000    -4.390000000    -0.125000000
H    -1.620000000    -4.783000000    -0.858000000
H    -2.822000000    -3.920000000    -0.535000000
O     0.042000000     4.617000000     2.166000000
H    -0.870000000     4.332000000     2.221000000
H     0.063000000     5.207000000     1.413000000
O     0.123000000    -1.094000000     6.464000000
H    -0.805000000    -1.134000000     6.235000000
H     0.403000000    -0.224000000     6.179000000
O    -4.469000000    -3.139000000    -1.713000000
H    -4.079000000    -3.211000000    -2.584000000
H    -4.625000000    -2.202000000    -1.596000000
O     1.260000000     0.284000000    -6.935000000
H     1.024000000     0.863000000    -6.210000000
H     2.208000000     0.177000000    -6.857000000
O    -3.444000000    -1.737000000     2.142000000
H    -2.576000000    -2.140000000     2.146000000
H    -3.308000000    -0.881000000     1.736000000
O     2.928000000    -4.733000000     3.668000000
H     2.757000000    -4.186000000     4.435000000
H     3.638000000    -5.313000000     3.942000000
O     0.664000000     2.414000000    -5.115000000
H    -0.072000000     2.138000000    -4.568000000
H     0.798000000     3.334000000    -4.890000000
O     2.305000000    -5.415000000     0.947000000
H     2.471000000    -5.185000000     1.862000000
H     3.034000000    -5.022000000     0.467000000
O     2.105000000     5.710000000     4.096000000
H     1.359000000     5.382000000     3.594000000
H     2.079000000     6.658000000     3.973000000
O    -2.492000000     0.847000000     1.299000000
H    -2.346000000     1.432000000     0.556000000
H    -1.637000000     0.450000000     1.463000000
O     1.901000000     1.161000000     4.848000000
H     2.195000000     2.048000000     4.639000000
H     2.710000000     0.663000000     4.967000000
O    -0.168000000    -4.748000000     5.414000000
H    -0.310000000    -5.077000000     6.302000000
H     0.636000000    -4.232000000     5.475000000
O     5.856000000    -0.042000000     3.400000000
H     6.237000000     0.359000000     4.182000000
H     5.374000000     0.669000000     2.977000000
O     3.564000000    -2.577000000    -2.268000000
H     2.621000000    -2.642000000    -2.417000000
H     3.652000000    -1.925000000    -1.572000000
O     1.035000000    -4.209000000    -3.105000000
H     1.683000000    -4.806000000    -2.730000000
H     0.193000000    -4.545000000    -2.798000000
O     4.257000000     2.033000000     1.861000000
H     3.845000000     2.625000000     2.491000000
H     3.751000000     2.149000000     1.057000000
O    -4.314000000    -0.460000000    -1.280000000
H    -5.172000000    -0.167000000    -0.971000000
H    -4.041000000     0.214000000    -1.902000000
O    -3.364000000    -3.909000000    -4.527000000
H    -2.874000000    -4.393000000    -5.192000000
H    -4.283000000    -4.077000000    -4.736000000
O    -2.600000000     7.661000000     1.138000000
H    -2.599000000     6.826000000     0.670000000
H    -2.200000000     8.278000000     0.525000000
O    -2.362000000    -1.072000000     5.492000000
H    -1.817000000    -0.562000000     4.892000000
H    -3.252000000    -0.967000000     5.156000000
O    -1.027000000     0.992000000     4.064000000
H    -1.353000000     1.651000000     3.452000000
H    -0.076000000     1.023000000     3.966000000
O    -0.419000000    -0.725000000    -4.631000000
H    -0.930000000    -0.080000000    -4.143000000
H    -0.966000000    -0.944000000    -5.385000000
O     3.246000000     5.665000000    -0.017000000
H     3.515000000     4.765000000     0.167000000
H     2.367000000     5.581000000    -0.386000000
O    -1.580000000    -5.176000000    -2.715000000
H    -2.020000000    -4.571000000    -3.312000000
H    -2.019000000    -6.015000000    -2.858000000
O     0.682000000    -7.040000000    -0.299000000
H     1.103000000    -6.371000000     0.242000000
H     1.313000000    -7.213000000    -0.998000000
O     4.499000000    -1.425000000     0.797000000
H     5.182000000    -0.756000000     0.761000000
H     4.848000000    -2.093000000     1.388000000
O    -3.874000000     1.621000000    -3.521000000
H    -2.950000000     1.537000000    -3.285000000
H    -3.868000000     1.737000000    -4.471000000
O     1.143000000     5.076000000    -1.741000000
H     1.458000000     4.960000000    -2.637000000
H     0.494000000     4.382000000    -1.622000000
O    -2.509000000     3.922000000     3.523000000
H    -3.000000000     3.348000000     2.934000000
H    -3.125000000     4.125000000     4.228000000
O    -2.158000000    -4.650000000     2.933000000
H    -1.401000000    -5.085000000     3.325000000
H    -2.197000000    -4.995000000     2.040000000
O    -2.465000000     5.273000000    -0.406000000
H    -1.905000000     4.665000000    -0.888000000
H    -3.332000000     5.158000000    -0.794000000
O     1.225000000    -3.120000000    -5.491000000
H     0.721000000    -2.316000000    -5.619000000
H     1.114000000    -3.327000000    -4.563000000
O    -2.163000000     4.632000000    -3.822000000
H    -2.943000000     4.148000000    -4.096000000
H    -1.652000000     3.997000000    -3.319000000
O    -0.139000000     7.385000000    -0.523000000
H    -0.169000000     6.594000000    -1.062000000
H     0.735000000     7.377000000    -0.134000000
O     3.376000000     2.551000000    -0.698000000
H     3.566000000     3.169000000    -1.405000000
H     3.114000000     1.747000000    -1.146000000
O    -5.006000000     2.977000000    -1.246000000
H    -4.492000000     2.593000000    -1.957000000
H    -5.879000000     2.600000000    -1.351000000
