161
-3019.06417
C    -0.669000000    -0.740000000    -1.098000000
H    -1.212000000    -1.405000000    -1.765000000
C    -0.251000000    -1.255000000     0.172000000
H    -0.397000000    -2.318000000     0.347000000
C     0.456000000    -0.473000000     1.020000000
C     0.978000000    -1.038000000     2.326000000
H     1.922000000    -1.547000000     2.120000000
H     1.244000000    -0.311000000     3.097000000
H     0.352000000    -1.829000000     2.743000000
C     0.617000000     0.913000000     0.740000000
H     0.979000000     1.603000000     1.498000000
C     0.173000000     1.453000000    -0.435000000
H     0.172000000     2.518000000    -0.656000000
C    -0.477000000     0.605000000    -1.325000000
C    -1.138000000     1.159000000    -2.596000000
O    -1.069000000     2.288000000    -2.796000000
O    -1.680000000     0.382000000    -3.393000000
O     2.296000000     0.812000000    -3.792000000
H     2.883000000     0.397000000    -4.425000000
H     2.484000000     0.368000000    -2.965000000
O     3.978000000     1.429000000     0.195000000
H     3.212000000     1.565000000     0.752000000
H     3.742000000     0.686000000    -0.360000000
O     2.677000000     1.351000000     6.165000000
H     3.239000000     1.755000000     5.504000000
H     3.287000000     0.930000000     6.772000000
O     3.297000000     5.512000000    -3.377000000
H     2.733000000     4.741000000    -3.447000000
H     2.920000000     6.140000000    -3.993000000
O     0.140000000    -5.740000000     4.144000000
H    -0.092000000    -6.641000000     3.918000000
H     0.624000000    -5.420000000     3.382000000
O    -0.472000000     6.650000000    -3.298000000
H    -1.033000000     5.922000000    -3.030000000
H     0.037000000     6.303000000    -4.031000000
O     0.939000000    -2.900000000     7.525000000
H     1.293000000    -2.988000000     6.640000000
H     1.345000000    -3.613000000     8.017000000
O    -3.464000000     1.443000000     3.673000000
H    -3.191000000     1.536000000     2.761000000
H    -3.139000000     0.581000000     3.934000000
O     0.079000000     2.775000000     3.751000000
H     0.846000000     3.304000000     3.534000000
H    -0.663000000     3.282000000     3.421000000
O    -2.653000000     0.816000000    -6.868000000
H    -3.583000000     0.588000000    -6.867000000
H    -2.323000000     0.480000000    -6.035000000
O    -1.559000000     4.873000000     3.262000000
H    -2.170000000     5.527000000     3.601000000
H    -1.313000000     5.200000000     2.397000000
O     4.798000000     2.453000000     4.420000000
H     5.451000000     2.806000000     3.816000000
H     5.020000000     1.525000000     4.499000000
O    -2.672000000    -5.091000000     1.013000000
H    -3.394000000    -4.918000000     0.408000000
H    -3.029000000    -4.885000000     1.877000000
O    -1.919000000    -1.011000000     4.748000000
H    -1.650000000    -1.906000000     4.953000000
H    -1.098000000    -0.521000000     4.693000000
O    -4.558000000    -4.173000000    -1.111000000
H    -4.693000000    -3.228000000    -1.183000000
H    -5.432000000    -4.528000000    -0.950000000
O     2.334000000     3.798000000     2.670000000
H     2.323000000     3.977000000     1.730000000
H     3.008000000     4.382000000     3.018000000
O    -0.120000000     2.441000000    -7.659000000
H     0.017000000     2.479000000    -6.712000000
H    -1.067000000     2.530000000    -7.767000000
O     0.264000000    -3.475000000    -4.230000000
H     0.692000000    -2.826000000    -4.789000000
H     0.419000000    -4.310000000    -4.671000000
O    -0.533000000    -1.243000000    -7.154000000
H     0.315000000    -1.246000000    -6.710000000
H    -0.790000000    -0.321000000    -7.173000000
O     3.726000000    -2.915000000     1.207000000
H     4.617000000    -3.210000000     1.018000000
H     3.185000000    -3.350000000     0.548000000
O     1.535000000    -4.917000000     2.053000000
H     1.749000000    -4.427000000     1.260000000
H     2.352000000    -5.352000000     2.294000000
O    -3.766000000     2.158000000    -3.953000000
H    -2.907000000     2.087000000    -3.536000000
H    -4.236000000     1.374000000    -3.668000000
O    -2.424000000     0.809000000     1.322000000
H    -1.992000000     0.117000000     0.821000000
H    -1.924000000     1.599000000     1.120000000
O     0.154000000     0.580000000     5.271000000
H     0.102000000     1.145000000     4.500000000
H     0.998000000     0.794000000     5.669000000
O    -0.942000000    -3.556000000     5.416000000
H    -0.696000000    -4.189000000     4.741000000
H    -0.256000000    -3.636000000     6.080000000
O     5.551000000    -0.247000000     5.072000000
H     5.136000000    -0.879000000     4.485000000
H     6.490000000    -0.368000000     4.930000000
O    -3.678000000     4.918000000    -4.208000000
H    -3.872000000     4.003000000    -4.411000000
H    -3.242000000     5.249000000    -4.993000000
O     2.876000000    -0.543000000    -1.563000000
H     2.045000000    -0.385000000    -1.114000000
H     2.871000000    -1.482000000    -1.751000000
O     4.597000000    -2.204000000     3.648000000
H     3.908000000    -2.489000000     4.248000000
H     4.232000000    -2.353000000     2.775000000
O    -0.208000000    -5.985000000    -0.133000000
H     0.530000000    -6.026000000     0.475000000
H    -0.859000000    -5.446000000     0.316000000
O    -3.888000000    -2.065000000     1.968000000
H    -3.764000000    -2.789000000     2.582000000
H    -3.230000000    -1.419000000     2.224000000
O     2.617000000    -3.608000000     4.955000000
H     2.138000000    -3.846000000     4.162000000
H     3.249000000    -4.316000000     5.076000000
O     4.923000000     4.200000000     0.134000000
H     4.925000000     3.248000000     0.241000000
H     4.047000000     4.401000000    -0.196000000
O    -5.825000000    -1.714000000    -5.914000000
H    -4.998000000    -1.746000000    -5.433000000
H    -6.497000000    -1.700000000    -5.233000000
O    -5.794000000    -0.195000000    -2.584000000
H    -6.481000000    -0.547000000    -3.149000000
H    -5.700000000    -0.844000000    -1.887000000
O     2.190000000     4.378000000     0.059000000
H     1.671000000     5.170000000    -0.082000000
H     2.320000000     4.018000000    -0.818000000
O    -2.725000000    -3.773000000    -6.463000000
H    -2.581000000    -3.581000000    -7.390000000
H    -2.197000000    -3.122000000    -5.999000000
O    -2.070000000    -3.418000000    -2.898000000
H    -1.175000000    -3.508000000    -3.225000000
H    -2.141000000    -4.080000000    -2.211000000
O     0.521000000     5.208000000     5.368000000
H     0.513000000     5.713000000     4.555000000
H     0.598000000     4.297000000     5.084000000
O     1.909000000    -4.026000000    -0.776000000
H     2.592000000    -3.970000000    -1.445000000
H     1.289000000    -4.668000000    -1.121000000
O    -4.385000000     2.780000000    -0.429000000
H    -4.678000000     2.059000000     0.129000000
H    -4.175000000     2.365000000    -1.266000000
O     0.097000000     6.626000000    -0.014000000
H    -0.640000000     6.064000000    -0.256000000
H    -0.219000000     7.516000000    -0.171000000
O    -2.534000000     5.711000000     0.398000000
H    -3.466000000     5.918000000     0.465000000
H    -2.436000000     5.325000000    -0.472000000
O    -0.055000000     1.103000000    -5.261000000
H     0.688000000     0.594000000    -4.935000000
H    -0.673000000     1.118000000    -4.530000000
O    -2.140000000     4.679000000    -2.010000000
H    -2.867000000     4.329000000    -2.524000000
H    -1.471000000     3.995000000    -2.043000000
O     1.393000000     3.566000000    -3.323000000
H     1.867000000     2.739000000    -3.403000000
H     0.470000000     3.316000000    -3.339000000
O    -5.297000000    -1.437000000    -0.269000000
H    -6.003000000    -1.449000000     0.377000000
H    -4.496000000    -1.505000000     0.250000000
O    -3.179000000    -1.408000000    -4.431000000
H    -2.743000000    -0.581000000    -4.227000000
H    -2.908000000    -2.002000000    -3.731000000
