161
-3043.41171
C     0.346000000     0.750000000    -1.249000000
H     0.599000000     1.291000000    -2.157000000
C     0.779000000    -0.528000000    -0.944000000
H     1.402000000    -1.143000000    -1.589000000
C     0.437000000    -1.123000000     0.272000000
C     0.883000000    -2.543000000     0.610000000
H     1.729000000    -2.807000000    -0.028000000
H     1.189000000    -2.601000000     1.656000000
H     0.107000000    -3.282000000     0.402000000
C    -0.413000000    -0.401000000     1.141000000
H    -0.762000000    -0.891000000     2.047000000
C    -0.921000000     0.855000000     0.865000000
H    -1.593000000     1.399000000     1.523000000
C    -0.538000000     1.398000000    -0.375000000
C    -0.996000000     2.832000000    -0.671000000
O    -1.871000000     3.367000000     0.023000000
O    -0.382000000     3.432000000    -1.522000000
O    -3.330000000     2.950000000     3.695000000
H    -3.745000000     3.705000000     3.279000000
H    -4.060000000     2.416000000     4.008000000
O     0.605000000    -1.857000000     4.978000000
H     1.130000000    -1.074000000     4.813000000
H     1.083000000    -2.326000000     5.662000000
O    -5.077000000     3.722000000    -2.658000000
H    -5.274000000     2.891000000    -2.226000000
H    -4.657000000     4.251000000    -1.979000000
O    -3.383000000    -0.516000000     4.947000000
H    -3.001000000    -0.003000000     4.235000000
H    -3.713000000    -1.307000000     4.522000000
O     3.328000000     3.974000000     0.669000000
H     3.216000000     3.151000000     1.144000000
H     4.260000000     4.000000000     0.451000000
O     5.070000000     1.007000000    -3.143000000
H     4.452000000     1.737000000    -3.127000000
H     5.687000000     1.199000000    -2.437000000
O     6.038000000    -4.656000000     0.751000000
H     6.782000000    -5.097000000     1.162000000
H     5.277000000    -5.172000000     1.018000000
O    -1.631000000    -5.831000000     1.810000000
H    -1.854000000    -6.373000000     2.567000000
H    -1.354000000    -4.996000000     2.187000000
O     4.045000000    -4.524000000    -2.721000000
H     3.518000000    -4.816000000    -1.977000000
H     4.112000000    -3.575000000    -2.609000000
O     4.061000000    -1.835000000    -2.722000000
H     4.305000000    -0.912000000    -2.791000000
H     3.436000000    -1.972000000    -3.434000000
O    -5.909000000     4.986000000     2.685000000
H    -6.354000000     4.249000000     2.265000000
H    -5.287000000     5.297000000     2.028000000
O     3.864000000    -5.533000000     2.327000000
H     3.859000000    -4.610000000     2.581000000
H     3.151000000    -5.924000000     2.832000000
O     1.484000000     2.799000000     3.324000000
H     2.221000000     3.325000000     3.632000000
H     1.889000000     2.044000000     2.898000000
O     2.699000000     2.175000000    -5.803000000
H     2.199000000     1.358000000    -5.777000000
H     2.298000000     2.678000000    -6.511000000
O     1.413000000    -2.770000000    -4.014000000
H     1.184000000    -3.288000000    -3.242000000
H     1.707000000    -3.415000000    -4.656000000
O    -3.392000000     5.023000000     1.652000000
H    -2.903000000     4.427000000     1.085000000
H    -2.718000000     5.500000000     2.136000000
O    -5.586000000     1.383000000     3.885000000
H    -5.394000000     0.674000000     3.271000000
H    -6.534000000     1.341000000     4.011000000
O    -1.035000000     6.738000000     2.619000000
H    -0.707000000     5.849000000     2.754000000
H    -0.846000000     7.191000000     3.441000000
O    -1.337000000     5.904000000    -2.064000000
H    -0.816000000     5.109000000    -1.951000000
H    -2.244000000     5.601000000    -2.041000000
O     3.519000000    -6.492000000    -0.355000000
H     2.815000000    -7.022000000    -0.728000000
H     3.210000000    -6.267000000     0.523000000
O     2.386000000     0.069000000     3.837000000
H     2.036000000     0.154000000     2.950000000
H     3.336000000     0.058000000     3.719000000
O    -0.996000000     1.649000000     4.178000000
H    -0.124000000     2.026000000     4.061000000
H    -1.589000000     2.290000000     3.786000000
O     0.496000000    -4.608000000    -2.045000000
H    -0.364000000    -4.599000000    -2.466000000
H     0.320000000    -4.888000000    -1.147000000
O    -4.742000000    -1.006000000     2.341000000
H    -4.753000000    -1.963000000     2.318000000
H    -4.437000000    -0.750000000     1.470000000
O     0.935000000    -0.380000000    -5.662000000
H     0.133000000    -0.213000000    -6.158000000
H     0.688000000    -1.053000000    -5.028000000
O    -0.955000000     7.966000000     0.126000000
H    -0.930000000     7.463000000    -0.688000000
H    -1.010000000     7.304000000     0.815000000
O    -4.449000000    -3.262000000    -1.688000000
H    -3.887000000    -3.664000000    -1.026000000
H    -5.339000000    -3.474000000    -1.408000000
O    -1.942000000     7.226000000    -4.858000000
H    -1.735000000     7.071000000    -3.936000000
H    -1.158000000     6.943000000    -5.330000000
O    -6.813000000     3.130000000     0.933000000
H    -7.122000000     2.238000000     1.094000000
H    -5.892000000     3.025000000     0.693000000
O    -1.734000000    -2.433000000    -1.485000000
H    -2.260000000    -2.414000000    -0.686000000
H    -0.853000000    -2.193000000    -1.199000000
O    -2.324000000    -4.517000000    -3.435000000
H    -2.489000000    -3.807000000    -2.815000000
H    -2.682000000    -5.296000000    -3.007000000
O     2.690000000     1.251000000     1.204000000
H     3.589000000     1.434000000     0.930000000
H     2.294000000     0.815000000     0.450000000
O     0.451000000    -7.286000000    -2.827000000
H     0.357000000    -7.252000000    -3.779000000
H     0.562000000    -6.372000000    -2.564000000
O    -1.393000000     2.410000000    -3.699000000
H    -1.755000000     3.147000000    -4.192000000
H    -1.048000000     2.805000000    -2.898000000
O     2.090000000     4.817000000    -1.570000000
H     1.425000000     4.133000000    -1.648000000
H     2.303000000     4.838000000    -0.637000000
O     2.727000000     7.111000000    -2.697000000
H     3.221000000     7.439000000    -1.946000000
H     2.611000000     6.178000000    -2.519000000
O    -4.385000000     2.240000000    -0.320000000
H    -4.031000000     1.389000000    -0.576000000
H    -3.613000000     2.788000000    -0.177000000
O    -3.481000000     3.774000000    -4.742000000
H    -4.031000000     3.725000000    -3.961000000
H    -3.653000000     4.644000000    -5.103000000
O    -4.186000000     5.732000000    -1.265000000
H    -4.051000000     5.812000000    -0.320000000
H    -4.870000000     6.371000000    -1.464000000
O    -0.549000000     4.176000000     2.317000000
H    -0.879000000     4.060000000     1.426000000
H     0.053000000     3.444000000     2.447000000
O    -4.292000000    -0.599000000    -1.111000000
H    -4.578000000    -1.438000000    -1.472000000
H    -3.341000000    -0.682000000    -1.037000000
O     1.012000000    -5.740000000     0.656000000
H     0.349000000    -6.148000000     1.213000000
H     1.559000000    -5.239000000     1.261000000
O     4.043000000     3.475000000    -3.640000000
H     3.475000000     3.857000000    -2.971000000
H     3.442000000     3.165000000    -4.317000000
O     1.985000000     6.106000000     2.103000000
H     2.431000000     5.417000000     1.611000000
H     1.111000000     5.752000000     2.272000000
O     4.014000000    -3.445000000     4.060000000
H     4.256000000    -2.564000000     4.346000000
H     4.004000000    -3.963000000     4.865000000
O    -2.533000000     0.268000000    -4.488000000
H    -2.643000000    -0.218000000    -3.671000000
H    -2.181000000     1.116000000    -4.216000000
O    -3.008000000    -2.760000000     0.903000000
H    -2.196000000    -2.802000000     1.408000000
H    -3.604000000    -3.355000000     1.358000000
O    -1.204000000    -3.074000000     3.266000000
H    -0.456000000    -2.608000000     3.639000000
H    -1.761000000    -3.276000000     4.018000000
