161
-3041.17263
C     0.977000000     0.809000000    -0.808000000
H     1.518000000     1.269000000    -1.632000000
C     0.967000000    -0.560000000    -0.595000000
H     1.775000000    -1.039000000    -1.141000000
C     0.148000000    -1.214000000     0.302000000
C     0.120000000    -2.728000000     0.331000000
H     0.353000000    -3.016000000     1.358000000
H    -0.857000000    -3.111000000     0.026000000
H     0.796000000    -3.208000000    -0.380000000
C    -0.789000000    -0.408000000     1.016000000
H    -1.476000000    -0.906000000     1.695000000
C    -0.771000000     1.011000000     0.889000000
H    -1.440000000     1.617000000     1.494000000
C    -0.003000000     1.604000000    -0.130000000
C    -0.346000000     2.958000000    -0.658000000
O    -0.993000000     3.741000000     0.041000000
O     0.026000000     3.173000000    -1.805000000
O    -3.578000000     0.048000000     2.207000000
H    -3.568000000     0.812000000     2.784000000
H    -3.442000000    -0.696000000     2.793000000
O     0.729000000    -3.455000000     5.331000000
H     0.334000000    -2.645000000     5.654000000
H     1.611000000    -3.457000000     5.701000000
O    -3.553000000     2.421000000    -0.204000000
H    -3.602000000     1.631000000     0.335000000
H    -2.739000000     2.846000000     0.068000000
O     2.136000000    -5.003000000    -3.870000000
H     2.818000000    -4.683000000    -4.462000000
H     1.600000000    -4.232000000    -3.684000000
O    -0.330000000    -1.115000000     6.455000000
H     0.350000000    -0.454000000     6.585000000
H    -1.125000000    -0.611000000     6.284000000
O    -3.698000000    -1.707000000     4.335000000
H    -3.008000000    -2.364000000     4.427000000
H    -3.760000000    -1.301000000     5.200000000
O     3.500000000     3.932000000    -0.634000000
H     3.618000000     3.884000000     0.315000000
H     4.138000000     4.585000000    -0.922000000
O     6.798000000     0.165000000    -2.940000000
H     6.033000000     0.595000000    -2.559000000
H     6.760000000    -0.732000000    -2.607000000
O     1.032000000    -6.312000000     2.197000000
H     1.194000000    -7.078000000     2.748000000
H     0.082000000    -6.298000000     2.079000000
O     3.804000000    -4.318000000    -1.642000000
H     3.635000000    -4.606000000    -0.745000000
H     3.311000000    -4.930000000    -2.187000000
O     3.899000000    -2.548000000    -4.740000000
H     3.903000000    -2.451000000    -3.788000000
H     4.502000000    -3.272000000    -4.910000000
O    -5.460000000     6.368000000     1.202000000
H    -5.859000000     6.929000000     1.867000000
H    -4.743000000     5.927000000     1.659000000
O     2.306000000     2.114000000    -5.619000000
H     3.039000000     2.182000000    -6.231000000
H     1.991000000     1.216000000    -5.721000000
O     2.915000000    -4.847000000     1.077000000
H     3.053000000    -3.915000000     1.247000000
H     2.069000000    -5.041000000     1.481000000
O    -4.691000000    -4.977000000    -1.118000000
H    -5.595000000    -4.775000000    -1.362000000
H    -4.312000000    -4.130000000    -0.883000000
O     4.290000000     2.861000000     1.964000000
H     4.852000000     2.516000000     1.271000000
H     4.887000000     3.029000000     2.694000000
O     0.114000000     2.121000000     3.715000000
H     0.736000000     1.461000000     3.407000000
H    -0.537000000     1.624000000     4.211000000
O     1.762000000     4.554000000    -3.096000000
H     2.310000000     4.544000000    -2.312000000
H     1.127000000     3.852000000    -2.953000000
O    -0.065000000    -2.788000000    -3.021000000
H    -0.473000000    -2.461000000    -3.823000000
H    -0.177000000    -2.078000000    -2.389000000
O    -2.894000000     5.237000000     2.714000000
H    -1.944000000     5.349000000     2.674000000
H    -3.198000000     5.966000000     3.254000000
O     1.363000000     8.152000000    -1.267000000
H     1.379000000     8.353000000    -0.332000000
H     0.869000000     7.334000000    -1.328000000
O    -0.297000000     5.957000000    -1.841000000
H    -0.765000000     5.241000000    -1.412000000
H     0.219000000     5.530000000    -2.525000000
O     2.459000000    -6.950000000    -0.678000000
H     1.534000000    -7.058000000    -0.901000000
H     2.460000000    -6.311000000     0.035000000
O     3.025000000    -0.621000000     4.213000000
H     2.931000000     0.010000000     3.500000000
H     2.175000000    -1.058000000     4.261000000
O    -2.242000000     0.979000000     5.389000000
H    -2.568000000     1.777000000     4.973000000
H    -3.028000000     0.539000000     5.713000000
O    -3.492000000     2.663000000     3.573000000
H    -4.403000000     2.871000000     3.365000000
H    -2.997000000     3.423000000     3.268000000
O     0.021000000    -7.621000000    -1.393000000
H    -0.671000000    -8.258000000    -1.212000000
H    -0.372000000    -7.013000000    -2.019000000
O    -1.565000000    -6.404000000     0.814000000
H    -2.103000000    -6.990000000     1.347000000
H    -1.132000000    -6.982000000     0.186000000
O    -6.453000000     2.832000000     0.208000000
H    -6.567000000     3.365000000    -0.579000000
H    -5.562000000     2.490000000     0.138000000
O    -1.509000000    -5.233000000    -2.731000000
H    -1.854000000    -4.703000000    -2.012000000
H    -0.847000000    -4.677000000    -3.141000000
O     6.414000000    -2.485000000    -2.173000000
H     5.699000000    -3.120000000    -2.136000000
H     6.989000000    -2.730000000    -1.449000000
O     2.289000000     1.002000000     2.093000000
H     3.017000000     1.593000000     1.901000000
H     1.641000000     1.192000000     1.414000000
O    -1.897000000     3.631000000    -3.757000000
H    -1.457000000     3.779000000    -2.920000000
H    -2.751000000     3.270000000    -3.518000000
O    -3.759000000    -2.011000000     0.451000000
H    -3.481000000    -2.441000000     1.259000000
H    -3.870000000    -1.092000000     0.695000000
O    -4.155000000     2.522000000    -2.893000000
H    -4.184000000     2.337000000    -1.954000000
H    -4.661000000     1.815000000    -3.292000000
O    -3.175000000     5.432000000    -0.692000000
H    -3.850000000     5.168000000    -0.067000000
H    -2.384000000     4.981000000    -0.395000000
O     0.043000000     4.783000000     2.261000000
H    -0.246000000     4.556000000     1.378000000
H     0.039000000     3.952000000     2.736000000
O     2.767000000     6.932000000    -4.851000000
H     2.314000000     6.614000000    -5.631000000
H     2.540000000     6.301000000    -4.168000000
O     4.702000000     1.931000000    -2.129000000
H     5.051000000     2.569000000    -2.751000000
H     3.998000000     2.397000000    -1.677000000
O    -2.115000000     7.330000000    -3.946000000
H    -1.413000000     7.936000000    -3.709000000
H    -2.181000000     6.736000000    -3.198000000
O    -4.138000000     7.584000000    -1.720000000
H    -3.439000000     8.038000000    -1.249000000
H    -4.120000000     6.692000000    -1.373000000
O     2.645000000     6.407000000     2.060000000
H     1.865000000     6.962000000     2.072000000
H     2.396000000     5.634000000     2.568000000
O     3.606000000    -2.418000000     1.751000000
H     3.094000000    -1.818000000     1.208000000
H     4.370000000    -1.906000000     2.018000000
O    -1.236000000    -0.051000000    -2.761000000
H    -0.540000000     0.250000000    -2.177000000
H    -0.926000000     0.173000000    -3.639000000
O    -2.835000000    -4.071000000     2.014000000
H    -2.545000000    -4.804000000     1.471000000
H    -2.182000000    -4.017000000     2.712000000
O    -1.836000000    -3.863000000     4.751000000
H    -0.930000000    -3.869000000     4.442000000
H    -1.783000000    -4.173000000     5.655000000
O    -3.114000000    -1.992000000    -2.406000000
H    -2.466000000    -1.354000000    -2.705000000
H    -3.119000000    -1.900000000    -1.453000000
O    -0.242000000     1.564000000    -4.708000000
H    -0.763000000     2.292000000    -4.368000000
H     0.664000000     1.864000000    -4.636000000
