161
-3018.66376
C     0.008000000     0.572000000    -1.344000000
H     0.097000000     1.018000000    -2.331000000
C     1.064000000    -0.161000000    -0.796000000
H     1.974000000    -0.355000000    -1.358000000
C     0.989000000    -0.580000000     0.525000000
C     1.900000000    -1.577000000     1.097000000
H     1.842000000    -1.563000000     2.187000000
H     1.568000000    -2.531000000     0.684000000
H     2.901000000    -1.281000000     0.776000000
C    -0.138000000    -0.387000000     1.249000000
H    -0.271000000    -0.879000000     2.209000000
C    -1.214000000     0.333000000     0.703000000
H    -2.161000000     0.434000000     1.227000000
C    -1.151000000     0.858000000    -0.618000000
C    -2.222000000     1.787000000    -1.222000000
O    -3.327000000     1.434000000    -1.361000000
O    -1.867000000     2.884000000    -1.632000000
O    -0.177000000     5.356000000     2.173000000
H    -1.098000000     5.236000000     2.403000000
H    -0.068000000     4.865000000     1.359000000
O     0.824000000    -4.899000000    -0.747000000
H    -0.126000000    -4.780000000    -0.739000000
H     0.961000000    -5.758000000    -0.348000000
O    -2.875000000     6.061000000     2.017000000
H    -2.573000000     5.849000000     1.134000000
H    -2.826000000     7.016000000     2.065000000
O     3.902000000    -3.048000000     4.307000000
H     4.141000000    -3.521000000     5.104000000
H     3.492000000    -3.709000000     3.749000000
O    -2.560000000     5.267000000    -0.567000000
H    -2.174000000     4.470000000    -0.931000000
H    -3.159000000     5.574000000    -1.248000000
O     7.356000000     0.348000000    -0.216000000
H     7.554000000    -0.350000000    -0.839000000
H     7.059000000    -0.109000000     0.571000000
O     1.595000000    -1.387000000    -4.155000000
H     0.816000000    -1.599000000    -3.642000000
H     1.253000000    -1.052000000    -4.984000000
O    -4.398000000    -0.693000000     3.548000000
H    -4.259000000     0.128000000     3.076000000
H    -3.516000000    -1.010000000     3.741000000
O    -2.501000000    -4.040000000     0.944000000
H    -2.153000000    -4.648000000     0.292000000
H    -1.809000000    -3.974000000     1.603000000
O     6.414000000    -1.178000000     2.006000000
H     6.435000000    -1.064000000     2.957000000
H     6.064000000    -2.060000000     1.879000000
O     4.737000000     1.194000000    -1.441000000
H     4.572000000     1.288000000    -0.502000000
H     5.162000000     0.341000000    -1.525000000
O    -0.425000000    -4.122000000     2.817000000
H    -0.005000000    -4.901000000     2.453000000
H     0.300000000    -3.585000000     3.136000000
O     2.137000000    -5.374000000    -3.177000000
H     1.591000000    -5.228000000    -3.950000000
H     1.715000000    -4.865000000    -2.485000000
O     6.489000000    -1.795000000    -3.861000000
H     6.632000000    -1.224000000    -4.616000000
H     5.540000000    -1.795000000    -3.737000000
O     4.136000000    -0.121000000     3.785000000
H     4.664000000     0.304000000     4.461000000
H     3.712000000    -0.851000000     4.236000000
O     3.087000000    -5.185000000     2.565000000
H     2.629000000    -5.726000000     3.208000000
H     2.805000000    -5.530000000     1.717000000
O    -5.377000000     2.578000000     0.012000000
H    -4.522000000     2.349000000    -0.353000000
H    -5.789000000     3.118000000    -0.662000000
O     0.494000000     3.318000000    -3.308000000
H    -0.368000000     3.373000000    -2.896000000
H     1.112000000     3.355000000    -2.578000000
O     0.903000000     1.638000000     4.204000000
H     1.479000000     2.110000000     3.602000000
H     0.077000000     2.120000000     4.173000000
O    -4.222000000     2.070000000     2.749000000
H    -4.465000000     2.192000000     1.832000000
H    -4.351000000     2.931000000     3.147000000
O     0.644000000     1.487000000     6.932000000
H     0.533000000     1.482000000     5.981000000
H     1.589000000     1.418000000     7.064000000
O    -6.026000000     0.591000000    -5.031000000
H    -6.075000000     1.373000000    -5.580000000
H    -5.294000000     0.759000000    -4.438000000
O     4.981000000     1.542000000    -4.226000000
H     5.827000000     1.987000000    -4.263000000
H     4.829000000     1.394000000    -3.292000000
O     6.678000000    -3.461000000    -1.525000000
H     6.293000000    -2.987000000    -2.262000000
H     5.926000000    -3.799000000    -1.039000000
O    -0.051000000     4.727000000    -5.626000000
H    -0.686000000     5.329000000    -5.237000000
H     0.358000000     4.294000000    -4.876000000
O    -2.017000000    -1.636000000     4.571000000
H    -1.103000000    -1.833000000     4.367000000
H    -1.973000000    -0.913000000     5.196000000
O     4.427000000     0.885000000     1.313000000
H     5.137000000     0.388000000     0.906000000
H     4.280000000     0.448000000     2.152000000
O     0.775000000    -1.946000000     4.334000000
H     1.081000000    -2.072000000     5.232000000
H     1.071000000    -1.066000000     4.101000000
O    -6.752000000    -1.752000000     2.284000000
H    -7.521000000    -1.290000000     2.617000000
H    -6.011000000    -1.324000000     2.713000000
O     5.811000000    -4.513000000     1.907000000
H     5.274000000    -4.964000000     1.256000000
H     5.179000000    -4.062000000     2.468000000
O    -7.480000000     1.459000000     2.039000000
H    -8.280000000     1.956000000     1.867000000
H    -7.011000000     1.464000000     1.204000000
O    -5.547000000     3.182000000    -6.049000000
H    -4.933000000     3.597000000    -6.655000000
H    -5.015000000     2.957000000    -5.286000000
O    -2.066000000     2.518000000    -5.837000000
H    -1.412000000     3.088000000    -5.432000000
H    -2.272000000     2.943000000    -6.669000000
O    -2.117000000    -0.271000000    -5.122000000
H    -2.203000000     0.652000000    -5.362000000
H    -1.320000000    -0.560000000    -5.567000000
O    -5.046000000    -2.799000000    -3.304000000
H    -5.803000000    -2.233000000    -3.155000000
H    -4.319000000    -2.345000000    -2.879000000
O    -1.530000000     2.959000000     4.122000000
H    -2.196000000     2.483000000     3.625000000
H    -2.027000000     3.580000000     4.654000000
O    -4.286000000     6.464000000    -2.697000000
H    -4.019000000     6.173000000    -3.568000000
H    -5.243000000     6.470000000    -2.729000000
O     0.148000000     3.715000000    -0.008000000
H    -0.571000000     3.299000000    -0.484000000
H     0.931000000     3.484000000    -0.508000000
O    -3.930000000     1.789000000    -3.961000000
H    -3.232000000     2.195000000    -4.475000000
H    -3.647000000     1.887000000    -3.052000000
O     3.115000000     2.799000000    -5.759000000
H     3.831000000     2.295000000    -5.371000000
H     2.506000000     2.945000000    -5.036000000
O     2.562000000     3.585000000    -1.355000000
H     3.300000000     2.990000000    -1.226000000
H     2.951000000     4.459000000    -1.323000000
O    -7.263000000     3.699000000    -1.895000000
H    -7.592000000     2.817000000    -2.066000000
H    -7.364000000     4.159000000    -2.728000000
O     3.913000000    -1.887000000    -2.736000000
H     3.587000000    -2.243000000    -1.909000000
H     3.124000000    -1.664000000    -3.229000000
O    -3.094000000    -1.041000000    -2.753000000
H    -2.895000000    -0.658000000    -3.607000000
H    -3.342000000    -0.295000000    -2.207000000
O    -0.420000000     6.350000000    -2.164000000
H    -0.928000000     6.593000000    -2.938000000
H    -1.075000000     6.068000000    -1.526000000
O     2.197000000     2.435000000     1.939000000
H     3.008000000     1.952000000     1.781000000
H     1.522000000     1.919000000     1.498000000
O     4.285000000    -4.943000000    -0.484000000
H     4.631000000    -5.385000000    -1.259000000
H     3.336000000    -5.040000000    -0.556000000
O    -0.555000000    -2.220000000    -2.751000000
H    -0.643000000    -2.756000000    -1.963000000
H    -1.380000000    -1.738000000    -2.805000000
