161
-3037.73237
C     0.208000000     1.411000000     0.416000000
H     0.518000000     2.396000000     0.756000000
C     1.223000000     0.409000000     0.380000000
H     2.235000000     0.660000000     0.688000000
C     0.883000000    -0.896000000    -0.019000000
C     1.873000000    -2.002000000    -0.056000000
H     2.412000000    -2.063000000     0.892000000
H     1.437000000    -2.993000000    -0.199000000
H     2.381000000    -1.929000000    -1.020000000
C    -0.453000000    -1.173000000    -0.341000000
H    -0.710000000    -2.223000000    -0.457000000
C    -1.423000000    -0.134000000    -0.347000000
H    -2.421000000    -0.476000000    -0.607000000
C    -1.113000000     1.163000000     0.020000000
C    -2.129000000     2.319000000     0.023000000
O    -3.308000000     2.112000000    -0.404000000
O    -1.616000000     3.425000000     0.272000000
O    -3.213000000     6.343000000     3.574000000
H    -3.755000000     6.000000000     2.864000000
H    -2.745000000     5.577000000     3.909000000
O    -4.246000000     5.265000000     1.555000000
H    -4.861000000     4.586000000     1.832000000
H    -4.195000000     5.168000000     0.604000000
O     4.772000000    -0.512000000    -3.203000000
H     4.547000000    -0.629000000    -4.126000000
H     4.807000000    -1.400000000    -2.850000000
O     1.432000000    -6.593000000     2.508000000
H     2.146000000    -6.290000000     3.068000000
H     0.955000000    -7.223000000     3.048000000
O     1.469000000    -1.614000000    -3.614000000
H     0.981000000    -0.942000000    -4.090000000
H     2.072000000    -1.123000000    -3.056000000
O     3.283000000    -3.979000000    -4.642000000
H     2.562000000    -4.252000000    -4.074000000
H     2.869000000    -3.432000000    -5.309000000
O    -3.935000000    -3.505000000    -0.392000000
H    -4.098000000    -4.185000000     0.262000000
H    -4.159000000    -2.687000000     0.053000000
O     5.186000000    -2.590000000     2.929000000
H     5.077000000    -3.516000000     2.715000000
H     5.605000000    -2.213000000     2.155000000
O    -1.489000000     3.803000000     4.342000000
H    -1.299000000     2.907000000     4.064000000
H    -1.204000000     3.835000000     5.255000000
O    -0.391000000    -5.197000000    -1.085000000
H    -1.108000000    -5.821000000    -0.973000000
H    -0.332000000    -4.746000000    -0.242000000
O     3.802000000     2.390000000    -0.646000000
H     3.881000000     2.419000000    -1.600000000
H     3.428000000     3.239000000    -0.411000000
O    -6.382000000     2.948000000     2.480000000
H    -6.862000000     2.360000000     3.063000000
H    -5.742000000     2.385000000     2.045000000
O     1.362000000    -2.418000000     3.010000000
H     1.546000000    -2.491000000     3.946000000
H     2.056000000    -1.852000000     2.673000000
O     5.863000000     0.732000000    -0.699000000
H     5.733000000     0.348000000    -1.566000000
H     5.179000000     1.398000000    -0.627000000
O     4.708000000    -4.680000000    -0.377000000
H     4.619000000    -5.550000000    -0.766000000
H     4.748000000    -4.842000000     0.566000000
O     4.641000000    -0.194000000     4.686000000
H     4.497000000    -1.126000000     4.525000000
H     4.468000000     0.224000000     3.843000000
O    -5.123000000     1.045000000     1.174000000
H    -4.413000000     1.329000000     0.599000000
H    -4.779000000     0.267000000     1.613000000
O    -1.887000000     8.110000000     1.281000000
H    -1.406000000     7.730000000     2.016000000
H    -2.672000000     7.568000000     1.203000000
O    -4.114000000     2.694000000     4.231000000
H    -4.654000000     3.264000000     3.683000000
H    -3.231000000     3.056000000     4.156000000
O    -2.803000000    -4.114000000    -2.589000000
H    -1.908000000    -4.359000000    -2.353000000
H    -3.207000000    -3.858000000    -1.760000000
O     5.047000000    -3.220000000    -2.558000000
H     4.294000000    -3.600000000    -3.011000000
H     5.017000000    -3.601000000    -1.681000000
O    -3.613000000     5.589000000    -3.060000000
H    -3.516000000     6.541000000    -3.036000000
H    -2.795000000     5.255000000    -2.690000000
O    -1.375000000    -1.568000000     2.733000000
H    -0.601000000    -1.910000000     3.180000000
H    -1.171000000    -1.656000000     1.801000000
O    -4.141000000    -1.482000000     2.523000000
H    -3.227000000    -1.637000000     2.283000000
H    -4.290000000    -2.048000000     3.280000000
O    -0.295000000     7.436000000    -0.740000000
H    -0.490000000     8.216000000    -1.260000000
H    -0.731000000     7.592000000     0.098000000
O    -3.159000000     1.779000000    -2.896000000
H    -2.203000000     1.762000000    -2.948000000
H    -3.346000000     1.881000000    -1.963000000
O    -5.274000000    -0.035000000    -2.615000000
H    -5.796000000     0.308000000    -1.889000000
H    -4.427000000     0.403000000    -2.529000000
O     0.139000000     0.575000000    -5.189000000
H     0.569000000     1.182000000    -5.791000000
H    -0.274000000     1.139000000    -4.535000000
O     0.167000000    -4.398000000     1.438000000
H     0.762000000    -5.140000000     1.546000000
H     0.539000000    -3.711000000     1.993000000
O     1.452000000    -7.227000000    -0.222000000
H     0.882000000    -6.509000000    -0.497000000
H     1.423000000    -7.202000000     0.735000000
O     4.202000000     4.255000000     2.249000000
H     4.712000000     5.022000000     2.508000000
H     4.101000000     3.751000000     3.057000000
O    -1.010000000     5.247000000     1.938000000
H    -0.909000000     4.547000000     1.293000000
H    -1.567000000     4.868000000     2.617000000
O    -4.951000000    -1.774000000    -4.764000000
H    -4.346000000    -2.387000000    -4.346000000
H    -5.166000000    -1.144000000    -4.076000000
O     1.245000000     5.472000000     3.947000000
H     1.956000000     4.831000000     3.952000000
H     0.913000000     5.454000000     3.050000000
O     4.151000000     1.089000000     2.268000000
H     3.659000000     1.903000000     2.373000000
H     4.393000000     1.073000000     1.342000000
O    -5.015000000     4.279000000    -1.336000000
H    -4.532000000     4.710000000    -2.042000000
H    -4.395000000     3.647000000    -0.973000000
O    -2.675000000    -4.487000000     2.466000000
H    -1.857000000    -4.977000000     2.561000000
H    -2.739000000    -3.970000000     3.269000000
O    -0.180000000     2.410000000    -2.715000000
H     0.210000000     2.033000000    -1.926000000
H    -0.227000000     3.349000000    -2.534000000
O    -4.685000000     2.038000000    -5.287000000
H    -4.194000000     2.040000000    -4.466000000
H    -5.351000000     1.361000000    -5.166000000
O    -1.133000000     5.036000000    -1.750000000
H    -0.841000000     5.863000000    -1.367000000
H    -1.351000000     4.487000000    -0.996000000
O     1.244000000    -4.350000000    -3.059000000
H     0.701000000    -4.631000000    -2.323000000
H     1.205000000    -3.394000000    -3.034000000
O     2.754000000     4.885000000    -3.070000000
H     2.783000000     5.005000000    -2.121000000
H     3.548000000     5.313000000    -3.390000000
O    -6.952000000     1.294000000    -0.911000000
H    -7.784000000     1.218000000    -0.444000000
H    -6.285000000     1.181000000    -0.233000000
O     1.692000000     7.113000000     1.340000000
H     0.988000000     7.023000000     0.698000000
H     1.730000000     8.052000000     1.523000000
O     3.077000000     5.317000000    -0.106000000
H     3.612000000     5.051000000     0.642000000
H     2.332000000     5.775000000     0.284000000
O    -6.277000000    -3.357000000    -2.108000000
H    -5.482000000    -3.508000000    -1.597000000
H    -6.245000000    -4.017000000    -2.801000000
O    -1.887000000     0.701000000     4.718000000
H    -1.803000000     0.072000000     4.001000000
H    -2.676000000     0.427000000     5.185000000
O     7.000000000    -0.938000000     1.007000000
H     7.142000000    -0.542000000     1.866000000
H     6.360000000    -0.366000000     0.583000000
