161
-3048.81372
C    -0.781000000    -0.156000000     1.198000000
H    -1.284000000    -0.323000000     2.146000000
C     0.561000000    -0.615000000     1.081000000
H     1.063000000    -1.170000000     1.869000000
C     1.207000000    -0.304000000    -0.109000000
C     2.688000000    -0.603000000    -0.311000000
H     2.890000000    -1.555000000     0.186000000
H     2.853000000    -0.693000000    -1.387000000
H     3.349000000     0.186000000     0.055000000
C     0.421000000     0.187000000    -1.200000000
H     0.926000000     0.280000000    -2.158000000
C    -0.924000000     0.413000000    -1.057000000
H    -1.547000000     0.684000000    -1.906000000
C    -1.537000000     0.387000000     0.151000000
C    -2.929000000     0.854000000     0.397000000
O    -3.684000000     1.288000000    -0.484000000
O    -3.274000000     1.143000000     1.528000000
O    -3.455000000    -4.552000000     0.850000000
H    -3.847000000    -3.715000000     1.096000000
H    -2.520000000    -4.439000000     1.023000000
O    -6.270000000     2.059000000    -0.605000000
H    -5.346000000     1.818000000    -0.547000000
H    -6.667000000     1.676000000     0.177000000
O     3.971000000     0.302000000     5.208000000
H     4.458000000     0.293000000     4.385000000
H     4.040000000    -0.595000000     5.537000000
O     2.238000000     4.391000000     3.515000000
H     2.224000000     3.904000000     4.338000000
H     2.718000000     3.826000000     2.910000000
O    -2.407000000     6.197000000    -1.838000000
H    -3.202000000     6.212000000    -1.305000000
H    -2.301000000     5.279000000    -2.086000000
O    -1.151000000     0.998000000     5.680000000
H    -2.046000000     0.898000000     6.005000000
H    -1.248000000     1.480000000     4.859000000
O    -1.364000000     5.391000000     3.644000000
H    -1.001000000     4.531000000     3.433000000
H    -0.627000000     5.879000000     4.012000000
O    -0.922000000     0.661000000    -5.387000000
H    -1.286000000    -0.206000000    -5.565000000
H     0.013000000     0.505000000    -5.250000000
O     6.942000000    -1.539000000    -2.059000000
H     6.720000000    -0.921000000    -1.363000000
H     6.392000000    -1.275000000    -2.797000000
O    -5.968000000    -2.578000000    -0.603000000
H    -6.767000000    -2.127000000    -0.329000000
H    -5.461000000    -2.677000000     0.203000000
O    -0.317000000     3.674000000    -1.899000000
H     0.261000000     3.190000000    -2.488000000
H    -1.192000000     3.550000000    -2.267000000
O     4.766000000    -3.881000000     0.222000000
H     4.175000000    -4.473000000     0.687000000
H     4.869000000    -3.134000000     0.811000000
O     4.266000000    -1.599000000    -3.650000000
H     3.349000000    -1.850000000    -3.538000000
H     4.757000000    -2.399000000    -3.466000000
O     0.419000000    -6.736000000     2.365000000
H    -0.272000000    -6.530000000     2.995000000
H     0.952000000    -5.941000000     2.327000000
O    -4.253000000    -0.225000000     5.305000000
H    -4.506000000    -0.073000000     4.395000000
H    -4.149000000     0.652000000     5.675000000
O    -5.266000000     3.405000000    -4.502000000
H    -4.483000000     3.219000000    -5.020000000
H    -5.908000000     2.760000000    -4.797000000
O    -0.429000000    -3.951000000     1.129000000
H     0.008000000    -3.290000000     0.593000000
H     0.072000000    -3.968000000     1.945000000
O    -0.789000000     2.762000000     3.438000000
H    -0.850000000     2.581000000     2.500000000
H     0.115000000     2.545000000     3.665000000
O    -6.560000000     4.690000000    -0.896000000
H    -6.876000000     4.905000000    -0.019000000
H    -6.420000000     3.743000000    -0.874000000
O    -4.016000000     0.359000000    -3.303000000
H    -4.396000000    -0.513000000    -3.198000000
H    -3.948000000     0.700000000    -2.412000000
O    -8.173000000     1.436000000    -2.457000000
H    -7.534000000     1.517000000    -1.749000000
H    -7.687000000     1.026000000    -3.172000000
O    -4.035000000     3.680000000     1.121000000
H    -4.432000000     3.579000000     0.256000000
H    -3.937000000     2.785000000     1.445000000
O     1.227000000    -3.981000000     3.609000000
H     2.096000000    -3.888000000     4.001000000
H     0.621000000    -3.774000000     4.320000000
O    -3.316000000     3.611000000    -1.868000000
H    -3.332000000     2.759000000    -1.431000000
H    -4.130000000     3.639000000    -2.370000000
O    -2.633000000     2.528000000    -4.578000000
H    -1.973000000     1.901000000    -4.876000000
H    -3.260000000     2.000000000    -4.084000000
O     1.611000000    -0.137000000    -4.749000000
H     2.204000000    -0.287000000    -5.486000000
H     1.742000000    -0.894000000    -4.179000000
O     2.909000000     3.526000000     1.037000000
H     1.976000000     3.313000000     1.029000000
H     3.000000000     4.230000000     0.394000000
O    -4.617000000    -2.242000000     1.756000000
H    -5.050000000    -2.404000000     2.594000000
H    -4.585000000    -1.289000000     1.683000000
O     1.508000000     2.497000000    -3.549000000
H     1.425000000     2.987000000    -4.367000000
H     1.624000000     1.588000000    -3.824000000
O    -4.906000000    -2.407000000    -3.218000000
H    -5.463000000    -2.461000000    -2.442000000
H    -4.469000000    -3.258000000    -3.259000000
O     1.750000000    -2.385000000    -3.364000000
H     2.376000000    -2.781000000    -2.757000000
H     1.270000000    -3.128000000    -3.731000000
O     5.697000000     0.866000000    -4.041000000
H     5.190000000     0.125000000    -3.710000000
H     5.210000000     1.638000000    -3.754000000
O    -0.291000000    -2.648000000     5.406000000
H    -0.494000000    -3.116000000     6.216000000
H    -0.342000000    -1.722000000     5.645000000
O     3.818000000    -3.818000000    -2.264000000
H     4.232000000    -3.892000000    -1.405000000
H     4.140000000    -4.576000000    -2.752000000
O     5.969000000    -1.850000000     2.031000000
H     6.571000000    -1.373000000     2.601000000
H     6.072000000    -1.436000000     1.174000000
O     0.223000000     2.763000000     0.521000000
H     0.017000000     3.243000000    -0.281000000
H     0.134000000     1.841000000     0.278000000
O    -4.076000000     4.349000000     4.058000000
H    -4.295000000     4.111000000     3.157000000
H    -3.291000000     4.890000000     3.979000000
O    -2.123000000    -4.190000000     3.959000000
H    -1.667000000    -3.571000000     4.529000000
H    -1.540000000    -4.949000000     3.914000000
O     5.071000000     2.281000000    -0.180000000
H     4.598000000     2.704000000     0.537000000
H     5.896000000     2.762000000    -0.239000000
O     3.489000000    -5.634000000     2.058000000
H     3.676000000    -6.395000000     2.607000000
H     3.321000000    -4.925000000     2.679000000
O     1.797000000     1.996000000     5.163000000
H     1.227000000     1.724000000     5.883000000
H     2.659000000     1.652000000     5.398000000
O     4.336000000     3.009000000    -3.028000000
H     4.686000000     2.978000000    -2.138000000
H     3.403000000     2.818000000    -2.925000000
O    -5.413000000     0.634000000     2.955000000
H    -6.102000000     1.244000000     2.691000000
H    -4.628000000     0.950000000     2.508000000
O    -3.737000000     2.538000000     6.384000000
H    -3.152000000     3.052000000     5.827000000
H    -3.435000000     2.715000000     7.275000000
O     6.676000000     0.129000000    -0.047000000
H     7.481000000     0.598000000    -0.268000000
H     6.001000000     0.807000000    -0.028000000
O     3.992000000    -3.444000000     3.796000000
H     4.430000000    -3.318000000     4.638000000
H     4.463000000    -2.868000000     3.193000000
O     7.005000000    -4.127000000    -1.405000000
H     6.212000000    -4.098000000    -0.870000000
H     7.173000000    -3.212000000    -1.632000000
O    -3.992000000     6.246000000     0.515000000
H    -4.171000000     5.328000000     0.721000000
H    -4.686000000     6.731000000     0.960000000
