161
-3025.83863
C    -0.578000000     1.170000000     0.620000000
H    -0.900000000     2.094000000     1.094000000
C     0.725000000     0.796000000     0.625000000
H     1.469000000     1.324000000     1.216000000
C     1.185000000    -0.307000000    -0.091000000
C     2.638000000    -0.554000000    -0.255000000
H     3.142000000     0.114000000     0.446000000
H     2.964000000    -1.572000000    -0.029000000
H     2.906000000    -0.145000000    -1.231000000
C     0.277000000    -1.183000000    -0.612000000
H     0.665000000    -2.079000000    -1.089000000
C    -1.124000000    -0.823000000    -0.576000000
H    -1.801000000    -1.495000000    -1.098000000
C    -1.499000000     0.359000000     0.087000000
C    -2.951000000     0.681000000     0.237000000
O    -3.818000000    -0.066000000    -0.170000000
O    -3.293000000     1.691000000     0.826000000
O    -4.623000000     4.526000000    -3.700000000
H    -4.970000000     3.825000000    -4.252000000
H    -4.477000000     4.110000000    -2.850000000
O    -8.061000000     1.293000000    -1.087000000
H    -8.315000000     2.197000000    -1.275000000
H    -8.879000000     0.799000000    -1.137000000
O     4.267000000     3.084000000     2.857000000
H     4.960000000     2.877000000     2.230000000
H     3.606000000     3.546000000     2.341000000
O     2.280000000     5.088000000     1.866000000
H     1.395000000     5.304000000     1.572000000
H     2.289000000     5.328000000     2.793000000
O     6.727000000    -0.657000000    -0.083000000
H     7.088000000     0.217000000    -0.230000000
H     6.686000000    -1.048000000    -0.956000000
O     6.408000000     2.076000000     1.454000000
H     6.969000000     2.244000000     0.697000000
H     6.176000000     1.150000000     1.380000000
O    -0.835000000    -0.392000000     5.082000000
H    -0.248000000     0.363000000     5.031000000
H    -1.693000000    -0.015000000     5.274000000
O    -1.428000000     4.861000000     3.533000000
H    -2.221000000     4.400000000     3.262000000
H    -1.105000000     5.273000000     2.731000000
O     2.516000000    -5.403000000    -2.368000000
H     3.291000000    -5.450000000    -2.927000000
H     2.764000000    -4.803000000    -1.665000000
O     1.459000000    -5.858000000     0.618000000
H     0.710000000    -5.307000000     0.846000000
H     1.457000000    -5.879000000    -0.339000000
O     2.528000000     1.823000000     4.420000000
H     3.115000000     2.335000000     3.863000000
H     2.734000000     0.912000000     4.211000000
O    -4.576000000    -1.140000000    -2.619000000
H    -4.177000000    -0.520000000    -3.230000000
H    -4.372000000    -0.788000000    -1.753000000
O    -1.195000000    -1.447000000     2.470000000
H    -1.180000000    -1.165000000     3.384000000
H    -0.764000000    -0.738000000     1.993000000
O     3.333000000    -0.575000000     3.716000000
H     4.111000000    -0.582000000     3.158000000
H     2.861000000    -1.374000000     3.479000000
O    -4.548000000     0.912000000     3.001000000
H    -5.435000000     0.809000000     2.657000000
H    -3.989000000     0.924000000     2.224000000
O     3.437000000    -1.259000000    -4.078000000
H     3.123000000    -1.719000000    -3.299000000
H     2.641000000    -0.991000000    -4.536000000
O    -0.736000000    -4.191000000     1.335000000
H    -1.484000000    -4.778000000     1.441000000
H    -1.082000000    -3.322000000     1.542000000
O    -8.208000000     1.029000000     2.988000000
H    -7.633000000     1.058000000     2.224000000
H    -8.926000000     1.624000000     2.771000000
O    -3.437000000     0.418000000     5.549000000
H    -3.676000000     1.070000000     6.208000000
H    -3.949000000     0.659000000     4.777000000
O    -3.379000000    -3.497000000    -4.387000000
H    -3.641000000    -3.249000000    -3.501000000
H    -3.673000000    -2.770000000    -4.936000000
O    -2.270000000     4.568000000     0.097000000
H    -2.990000000     3.940000000     0.160000000
H    -2.273000000     4.845000000    -0.820000000
O     6.837000000    -1.300000000    -2.717000000
H     7.697000000    -1.510000000    -3.080000000
H     6.502000000    -0.603000000    -3.281000000
O    -5.385000000    -4.895000000    -0.885000000
H    -4.859000000    -4.099000000    -0.959000000
H    -4.818000000    -5.516000000    -0.429000000
O    -6.764000000    -2.011000000    -4.043000000
H    -6.028000000    -1.716000000    -3.507000000
H    -6.785000000    -2.960000000    -3.919000000
O     1.618000000    -2.811000000     3.548000000
H     1.832000000    -3.579000000     4.076000000
H     1.074000000    -3.152000000     2.838000000
O    -3.412000000     0.725000000    -4.103000000
H    -4.133000000     1.046000000    -4.645000000
H    -2.786000000     0.360000000    -4.728000000
O     5.314000000     0.676000000    -4.536000000
H     4.710000000    -0.021000000    -4.279000000
H     5.665000000     0.390000000    -5.379000000
O    -5.945000000    -2.485000000     3.198000000
H    -5.471000000    -2.297000000     4.008000000
H    -5.969000000    -3.441000000     3.152000000
O    -0.116000000     2.243000000     4.791000000
H    -0.603000000     2.910000000     4.307000000
H     0.796000000     2.376000000     4.531000000
O    -2.148000000     2.815000000    -2.913000000
H    -2.465000000     2.042000000    -3.379000000
H    -1.277000000     2.568000000    -2.603000000
O     0.564000000     2.558000000    -1.954000000
H     1.033000000     2.976000000    -1.232000000
H     0.722000000     1.622000000    -1.832000000
O    -6.345000000     0.638000000     1.025000000
H    -5.545000000     0.301000000     0.622000000
H    -6.851000000     0.993000000     0.295000000
O     4.341000000    -3.152000000    -1.807000000
H     4.686000000    -2.975000000    -2.682000000
H     4.997000000    -3.719000000    -1.402000000
O    -1.943000000    -0.518000000    -5.722000000
H    -2.326000000    -1.296000000    -6.127000000
H    -1.942000000     0.139000000    -6.419000000
O     2.829000000     3.623000000    -0.413000000
H     2.750000000     3.894000000     0.502000000
H     3.754000000     3.751000000    -0.621000000
O    -3.600000000    -2.704000000     0.286000000
H    -3.855000000    -1.790000000     0.159000000
H    -3.147000000    -2.711000000     1.129000000
O     5.567000000    -1.695000000     2.047000000
H     5.910000000    -1.271000000     1.260000000
H     5.319000000    -2.573000000     1.757000000
O    -0.166000000     5.815000000     1.324000000
H    -0.892000000     5.345000000     0.913000000
H     0.017000000     6.541000000     0.727000000
O    -4.173000000     6.285000000     3.508000000
H    -4.628000000     6.746000000     2.804000000
H    -4.255000000     5.359000000     3.280000000
O    -7.208000000    -2.425000000     0.245000000
H    -6.858000000    -3.166000000    -0.249000000
H    -6.572000000    -2.282000000     0.946000000
O    -3.793000000     3.514000000     2.714000000
H    -4.068000000     2.832000000     3.327000000
H    -3.764000000     3.074000000     1.864000000
O     0.498000000     5.392000000    -2.240000000
H     0.343000000     4.496000000    -1.942000000
H    -0.378000000     5.766000000    -2.338000000
O    -4.727000000     3.184000000    -0.678000000
H    -4.240000000     2.410000000    -0.397000000
H    -5.538000000     3.154000000    -0.170000000
O    -6.825000000     3.587000000     0.872000000
H    -7.734000000     3.497000000     0.586000000
H    -6.837000000     3.327000000     1.793000000
O     6.580000000     2.518000000    -3.151000000
H     6.203000000     3.349000000    -3.438000000
H     5.981000000     1.853000000    -3.491000000
O    -0.789000000    -3.251000000    -5.155000000
H    -1.679000000    -3.354000000    -4.817000000
H    -0.564000000    -2.341000000    -4.962000000
O     4.805000000    -4.601000000     1.590000000
H     3.873000000    -4.801000000     1.673000000
H     5.045000000    -4.935000000     0.726000000
O    -5.326000000     6.262000000    -1.006000000
H    -4.991000000     5.475000000    -0.575000000
H    -5.209000000     6.957000000    -0.359000000
