161
-3038.35962
C    -0.694000000    -0.344000000     1.233000000
H    -1.070000000    -0.528000000     2.236000000
C     0.666000000    -0.224000000     1.129000000
H     1.258000000    -0.353000000     2.031000000
C     1.233000000     0.008000000    -0.144000000
C     2.669000000     0.289000000    -0.287000000
H     2.834000000     1.188000000    -0.884000000
H     3.119000000     0.380000000     0.704000000
H     3.099000000    -0.600000000    -0.754000000
C     0.405000000     0.197000000    -1.252000000
H     0.871000000     0.393000000    -2.214000000
C    -0.976000000     0.036000000    -1.119000000
H    -1.591000000    -0.007000000    -2.014000000
C    -1.579000000    -0.184000000     0.141000000
C    -3.058000000    -0.128000000     0.332000000
O    -3.742000000     0.321000000    -0.577000000
O    -3.451000000    -0.448000000     1.434000000
O    -4.133000000     2.262000000    -3.587000000
H    -3.454000000     1.724000000    -3.995000000
H    -4.043000000     2.088000000    -2.649000000
O     2.017000000     2.332000000     5.079000000
H     1.148000000     2.112000000     4.744000000
H     2.468000000     1.491000000     5.146000000
O    -5.881000000     0.852000000     1.720000000
H    -5.571000000     1.575000000     2.265000000
H    -5.086000000     0.482000000     1.338000000
O     5.044000000     2.979000000     2.224000000
H     5.022000000     2.027000000     2.323000000
H     4.130000000     3.250000000     2.305000000
O     2.166000000     3.051000000     2.246000000
H     1.669000000     2.281000000     1.970000000
H     1.524000000     3.601000000     2.696000000
O     3.577000000    -3.016000000    -0.124000000
H     4.017000000    -2.825000000    -0.952000000
H     3.766000000    -3.940000000     0.039000000
O     5.015000000     4.522000000    -1.309000000
H     4.224000000     4.144000000    -1.692000000
H     4.826000000     4.577000000    -0.373000000
O     7.463000000    -2.368000000    -0.534000000
H     7.950000000    -1.736000000    -1.063000000
H     6.711000000    -2.606000000    -1.076000000
O     2.944000000    -0.249000000     4.893000000
H     3.795000000    -0.237000000     5.331000000
H     3.030000000    -0.922000000     4.218000000
O     1.534000000    -4.208000000     2.897000000
H     0.728000000    -4.722000000     2.835000000
H     2.215000000    -4.792000000     2.564000000
O    -1.443000000     0.318000000     6.304000000
H    -0.884000000    -0.431000000     6.100000000
H    -2.118000000     0.306000000     5.626000000
O     4.543000000     0.562000000    -3.474000000
H     4.583000000     1.337000000    -4.034000000
H     4.185000000     0.883000000    -2.646000000
O    -2.088000000     0.544000000    -4.417000000
H    -1.855000000    -0.369000000    -4.249000000
H    -2.476000000     0.536000000    -5.291000000
O     6.534000000     0.112000000     0.932000000
H     6.358000000     0.664000000     0.171000000
H     6.491000000    -0.783000000     0.594000000
O     5.940000000    -1.566000000     3.640000000
H     6.287000000    -0.854000000     3.102000000
H     5.067000000    -1.731000000     3.284000000
O    -4.687000000    -1.032000000    -2.701000000
H    -3.859000000    -1.369000000    -3.042000000
H    -4.442000000    -0.550000000    -1.911000000
O    -0.033000000    -2.242000000     5.516000000
H    -0.228000000    -2.667000000     6.351000000
H     0.853000000    -1.896000000     5.624000000
O    -1.382000000    -3.152000000     1.187000000
H    -1.446000000    -3.478000000     2.085000000
H    -1.480000000    -2.203000000     1.269000000
O    -2.818000000     5.247000000    -1.535000000
H    -3.240000000     4.420000000    -1.769000000
H    -2.597000000     5.649000000    -2.375000000
O     3.443000000    -1.955000000     2.584000000
H     3.840000000    -2.374000000     1.821000000
H     2.636000000    -2.448000000     2.735000000
O    -4.938000000    -2.664000000     1.843000000
H    -5.044000000    -2.819000000     0.905000000
H    -4.510000000    -1.809000000     1.898000000
O     1.017000000    -4.248000000    -0.245000000
H     0.447000000    -3.564000000     0.107000000
H     1.850000000    -3.805000000    -0.407000000
O    -8.092000000    -1.113000000     1.700000000
H    -7.914000000    -1.961000000     1.295000000
H    -7.364000000    -0.557000000     1.422000000
O    -1.381000000    -3.991000000     3.879000000
H    -0.645000000    -3.526000000     4.277000000
H    -2.131000000    -3.771000000     4.431000000
O     6.757000000     1.777000000    -1.292000000
H     6.450000000     2.682000000    -1.334000000
H     6.887000000     1.525000000    -2.206000000
O    -3.976000000     2.868000000    -0.503000000
H    -4.024000000     1.927000000    -0.672000000
H    -3.702000000     2.932000000     0.413000000
O     5.296000000    -2.715000000    -2.186000000
H     5.286000000    -3.583000000    -2.590000000
H     5.857000000    -2.191000000    -2.758000000
O    -2.491000000    -2.204000000    -3.932000000
H    -2.987000000    -2.698000000    -4.585000000
H    -2.087000000    -2.873000000    -3.380000000
O     3.239000000    -1.657000000    -4.802000000
H     3.242000000    -0.878000000    -4.246000000
H     2.494000000    -2.171000000    -4.492000000
O    -6.113000000    -4.844000000     3.163000000
H    -5.461000000    -5.467000000     3.485000000
H    -5.617000000    -4.246000000     2.604000000
O     0.728000000    -2.442000000    -3.793000000
H     0.388000000    -3.310000000    -3.576000000
H     0.306000000    -1.856000000    -3.164000000
O    -7.699000000     2.238000000     0.167000000
H    -7.375000000     1.729000000     0.910000000
H    -7.527000000     1.685000000    -0.595000000
O    -0.231000000     2.530000000    -3.677000000
H    -0.923000000     1.891000000    -3.848000000
H     0.579000000     2.071000000    -3.899000000
O     1.961000000     1.584000000    -5.239000000
H     2.713000000     1.858000000    -4.714000000
H     1.682000000     2.380000000    -5.691000000
O    -0.322000000     3.042000000    -0.475000000
H    -0.095000000     3.303000000    -1.368000000
H    -0.608000000     2.132000000    -0.558000000
O    -6.035000000    -3.755000000    -0.807000000
H    -5.525000000    -4.203000000    -1.481000000
H    -6.637000000    -3.194000000    -1.295000000
O     0.249000000    -1.107000000    -6.257000000
H     0.999000000    -0.569000000    -6.004000000
H     0.315000000    -1.886000000    -5.705000000
O     2.058000000     5.160000000     0.270000000
H     1.186000000     5.393000000    -0.049000000
H     1.916000000     4.383000000     0.811000000
O    -7.221000000     0.311000000    -2.142000000
H    -6.325000000     0.046000000    -2.350000000
H    -7.680000000    -0.511000000    -1.970000000
O    -1.647000000     3.708000000     2.071000000
H    -1.198000000     3.558000000     1.239000000
H    -1.842000000     4.645000000     2.072000000
O     2.738000000     3.521000000    -2.743000000
H     2.235000000     4.242000000    -2.363000000
H     2.921000000     3.803000000    -3.639000000
O    -3.025000000    -5.607000000     1.073000000
H    -3.182000000    -4.794000000     0.592000000
H    -2.074000000    -5.714000000     1.059000000
O    -0.587000000     2.336000000     4.356000000
H    -1.264000000     1.664000000     4.433000000
H    -0.944000000     2.965000000     3.729000000
O    -2.834000000     0.579000000     3.889000000
H    -3.729000000     0.708000000     4.203000000
H    -2.936000000     0.313000000     2.976000000
O    -6.840000000    -2.058000000    -3.817000000
H    -6.959000000    -1.520000000    -4.599000000
H    -6.008000000    -1.762000000    -3.448000000
O    -4.236000000     2.888000000     2.882000000
H    -3.295000000     3.068000000     2.876000000
H    -4.553000000     3.303000000     3.685000000
O    -3.958000000    -3.171000000     4.605000000
H    -4.082000000    -2.502000000     5.278000000
H    -4.330000000    -2.784000000     3.812000000
O    -5.882000000     4.261000000     0.738000000
H    -6.657000000     3.706000000     0.652000000
H    -5.176000000     3.752000000     0.339000000
