161
-3014.76330
C    -0.443000000     1.294000000     0.594000000
H    -0.455000000     2.252000000     1.108000000
C     0.122000000     0.258000000     1.337000000
H     0.490000000     0.397000000     2.350000000
C     0.425000000    -0.894000000     0.676000000
C     1.194000000    -1.977000000     1.430000000
H     0.584000000    -2.769000000     1.868000000
H     1.888000000    -2.487000000     0.758000000
H     1.734000000    -1.403000000     2.186000000
C     0.141000000    -1.094000000    -0.683000000
H     0.441000000    -2.039000000    -1.129000000
C    -0.568000000    -0.143000000    -1.362000000
H    -0.899000000    -0.223000000    -2.395000000
C    -0.778000000     1.155000000    -0.770000000
C    -1.171000000     2.278000000    -1.704000000
O    -1.421000000     1.961000000    -2.898000000
O    -1.287000000     3.432000000    -1.359000000
O     7.216000000    -4.818000000     0.769000000
H     6.411000000    -4.410000000     1.086000000
H     7.901000000    -4.179000000     0.965000000
O    -3.967000000     1.477000000    -3.253000000
H    -4.388000000     1.708000000    -2.425000000
H    -3.076000000     1.229000000    -3.008000000
O    -1.366000000     0.642000000     4.174000000
H    -1.354000000     0.195000000     5.020000000
H    -0.632000000     1.254000000     4.216000000
O     4.210000000    -3.516000000     6.197000000
H     3.998000000    -3.814000000     7.082000000
H     3.440000000    -3.743000000     5.676000000
O    -3.570000000     0.026000000     2.544000000
H    -4.126000000    -0.559000000     3.060000000
H    -2.825000000     0.212000000     3.115000000
O     0.969000000    -6.333000000    -3.692000000
H     0.063000000    -6.149000000    -3.940000000
H     1.438000000    -5.519000000    -3.873000000
O     2.730000000     1.580000000    -0.276000000
H     2.621000000     1.221000000    -1.157000000
H     1.902000000     1.387000000     0.165000000
O    -3.866000000     2.595000000     5.131000000
H    -3.933000000     2.357000000     6.056000000
H    -3.039000000     2.207000000     4.844000000
O     4.206000000    -1.448000000     4.179000000
H     3.902000000    -1.892000000     4.970000000
H     5.103000000    -1.182000000     4.383000000
O     2.914000000     0.937000000     4.036000000
H     2.853000000     0.032000000     3.731000000
H     3.321000000     0.872000000     4.900000000
O    -1.110000000     4.065000000    -7.040000000
H    -1.354000000     3.933000000    -6.124000000
H    -1.874000000     4.488000000    -7.433000000
O     3.420000000    -4.663000000    -4.582000000
H     3.286000000    -4.179000000    -3.767000000
H     3.425000000    -3.991000000    -5.263000000
O     3.392000000    -5.581000000    -0.996000000
H     4.190000000    -5.653000000    -0.473000000
H     3.229000000    -6.470000000    -1.311000000
O     2.486000000     0.114000000    -2.996000000
H     2.741000000    -0.796000000    -3.150000000
H     2.698000000     0.564000000    -3.814000000
O    -4.331000000     0.150000000    -5.979000000
H    -3.688000000     0.616000000    -5.445000000
H    -4.826000000    -0.378000000    -5.352000000
O     0.393000000     4.751000000     2.869000000
H     0.245000000     3.942000000     3.360000000
H     0.531000000     5.417000000     3.542000000
O     1.754000000    -5.381000000     2.519000000
H     2.522000000    -5.865000000     2.216000000
H     1.190000000    -5.320000000     1.748000000
O     5.466000000     1.597000000     3.234000000
H     5.735000000     1.561000000     2.316000000
H     4.557000000     1.297000000     3.230000000
O     0.018000000     5.330000000    -3.197000000
H    -0.632000000     5.014000000    -2.569000000
H     0.657000000     4.620000000    -3.258000000
O    -1.591000000     7.302000000    -4.102000000
H    -1.183000000     6.666000000    -3.515000000
H    -1.310000000     8.153000000    -3.765000000
O     0.126000000     8.021000000    -1.213000000
H     0.454000000     8.840000000    -0.841000000
H     0.440000000     7.343000000    -0.615000000
O    -2.218000000    -2.013000000    -3.690000000
H    -2.019000000    -2.787000000    -3.163000000
H    -2.916000000    -2.297000000    -4.280000000
O    -4.842000000     4.184000000    -5.909000000
H    -4.580000000     4.474000000    -6.783000000
H    -4.016000000     4.065000000    -5.439000000
O     2.201000000     6.887000000     0.449000000
H     1.383000000     6.408000000     0.583000000
H     2.884000000     6.276000000     0.725000000
O     1.881000000    -4.551000000     5.043000000
H     1.131000000    -3.969000000     5.165000000
H     1.851000000    -4.788000000     4.116000000
O    -3.266000000     6.282000000     1.984000000
H    -4.111000000     6.495000000     1.588000000
H    -2.787000000     5.823000000     1.293000000
O     5.313000000    -1.045000000    -0.210000000
H     4.443000000    -0.868000000     0.147000000
H     5.838000000    -1.292000000     0.552000000
O     2.966000000    -2.874000000    -2.229000000
H     3.116000000    -3.665000000    -1.711000000
H     2.833000000    -2.184000000    -1.579000000
O     1.506000000     3.062000000    -3.406000000
H     0.690000000     2.836000000    -3.853000000
H     2.194000000     2.783000000    -4.010000000
O     0.738000000     2.650000000     4.403000000
H     1.328000000     3.050000000     5.042000000
H     1.235000000     1.913000000     4.047000000
O     0.100000000     1.550000000    -7.612000000
H    -0.090000000     0.852000000    -6.985000000
H    -0.535000000     2.236000000    -7.405000000
O    -1.487000000     0.329000000    -5.136000000
H    -1.711000000    -0.510000000    -4.734000000
H    -1.318000000     0.912000000    -4.396000000
O     2.420000000     6.260000000    -2.218000000
H     2.251000000     6.589000000    -1.335000000
H     1.739000000     6.662000000    -2.758000000
O    -3.421000000     4.968000000    -0.354000000
H    -4.062000000     5.009000000    -1.064000000
H    -2.719000000     4.414000000    -0.696000000
O    -0.560000000    -7.792000000     0.107000000
H    -1.297000000    -7.574000000     0.678000000
H     0.074000000    -7.091000000     0.256000000
O     3.571000000     4.429000000    -0.607000000
H     3.064000000     3.760000000    -0.147000000
H     3.012000000     4.692000000    -1.338000000
O    -4.324000000     2.334000000     1.531000000
H    -3.628000000     2.985000000     1.611000000
H    -3.951000000     1.536000000     1.905000000
O    -3.107000000    -4.704000000     2.827000000
H    -2.296000000    -4.483000000     3.285000000
H    -3.619000000    -3.895000000     2.841000000
O    -3.747000000    -3.072000000    -1.344000000
H    -4.151000000    -2.817000000    -2.173000000
H    -3.785000000    -2.281000000    -0.806000000
O    -4.429000000    -0.707000000     0.112000000
H    -4.526000000    -0.403000000     1.015000000
H    -3.483000000    -0.775000000    -0.017000000
O     0.079000000     5.317000000     0.186000000
H     0.235000000     5.000000000     1.076000000
H    -0.593000000     4.732000000    -0.162000000
O    -4.411000000     4.356000000    -2.950000000
H    -5.288000000     4.559000000    -3.277000000
H    -4.274000000     3.439000000    -3.186000000
O    -1.071000000    -4.030000000     5.026000000
H    -1.277000000    -4.885000000     5.403000000
H    -1.599000000    -3.411000000     5.531000000
O     4.796000000    -3.998000000     2.470000000
H     4.557000000    -3.273000000     3.048000000
H     3.960000000    -4.391000000     2.221000000
O    -2.707000000     7.423000000    -1.083000000
H    -1.752000000     7.373000000    -1.128000000
H    -2.956000000     6.726000000    -0.476000000
O    -1.230000000    -4.346000000    -1.856000000
H    -2.052000000    -4.065000000    -1.453000000
H    -1.496000000    -4.786000000    -2.663000000
O     0.794000000    -5.196000000     0.107000000
H     0.297000000    -4.536000000    -0.376000000
H     1.591000000    -5.319000000    -0.409000000
O    -1.912000000     3.806000000    -4.508000000
H    -1.932000000     4.477000000    -3.825000000
H    -1.977000000     2.978000000    -4.032000000
