161
-3042.56776
C    -1.274000000     0.521000000     0.567000000
H    -2.129000000     1.057000000     0.973000000
C     0.002000000     0.730000000     1.091000000
H     0.055000000     1.156000000     2.089000000
C     1.139000000     0.162000000     0.426000000
C     2.560000000     0.510000000     0.966000000
H     3.301000000    -0.247000000     0.701000000
H     2.961000000     1.499000000     0.733000000
H     2.537000000     0.386000000     2.051000000
C     0.943000000    -0.618000000    -0.701000000
H     1.816000000    -1.041000000    -1.192000000
C    -0.370000000    -0.857000000    -1.188000000
H    -0.518000000    -1.482000000    -2.065000000
C    -1.467000000    -0.284000000    -0.551000000
C    -2.800000000    -0.530000000    -1.130000000
O    -2.945000000    -0.531000000    -2.357000000
O    -3.815000000    -0.429000000    -0.421000000
O     8.084000000    -1.395000000    -0.878000000
H     7.259000000    -0.909000000    -0.869000000
H     8.396000000    -1.319000000    -1.780000000
O    -2.844000000     0.847000000    -4.720000000
H    -2.776000000     0.154000000    -5.376000000
H    -3.042000000     0.387000000    -3.905000000
O     0.777000000    -0.234000000     5.782000000
H     1.433000000    -0.823000000     5.408000000
H     0.260000000    -0.791000000     6.365000000
O    -3.274000000     4.357000000    -1.643000000
H    -3.813000000     4.535000000    -2.413000000
H    -3.501000000     5.052000000    -1.025000000
O    -3.491000000    -2.313000000     4.684000000
H    -3.476000000    -2.017000000     3.774000000
H    -3.228000000    -3.233000000     4.641000000
O    -1.148000000     5.355000000     2.557000000
H    -1.133000000     6.298000000     2.395000000
H    -0.280000000     5.052000000     2.289000000
O    -2.103000000     0.512000000     4.262000000
H    -1.201000000     0.238000000     4.095000000
H    -2.453000000    -0.159000000     4.847000000
O     4.350000000     1.312000000    -3.305000000
H     4.686000000     2.203000000    -3.398000000
H     4.774000000     0.821000000    -4.009000000
O     0.818000000     2.502000000     6.256000000
H     1.319000000     2.385000000     7.063000000
H     0.655000000     1.612000000     5.944000000
O     3.064000000    -1.884000000    -3.534000000
H     3.472000000    -1.570000000    -4.342000000
H     2.188000000    -1.499000000    -3.543000000
O    -5.726000000    -2.243000000     0.003000000
H    -5.039000000    -1.633000000    -0.267000000
H    -5.914000000    -2.005000000     0.911000000
O    -0.484000000    -4.553000000    -4.061000000
H    -1.223000000    -4.996000000    -3.644000000
H     0.003000000    -4.164000000    -3.334000000
O    -5.533000000     1.591000000     0.463000000
H    -4.994000000     1.596000000     1.254000000
H    -5.021000000     1.093000000    -0.173000000
O     2.433000000    -1.783000000     4.278000000
H     2.951000000    -2.586000000     4.337000000
H     2.915000000    -1.232000000     3.660000000
O     1.488000000     0.188000000    -6.186000000
H     1.093000000     0.223000000    -5.315000000
H     1.585000000    -0.747000000    -6.367000000
O    -4.082000000     2.082000000     2.604000000
H    -3.536000000     1.417000000     3.023000000
H    -3.722000000     2.915000000     2.909000000
O     1.882000000     2.691000000    -4.147000000
H     2.581000000     2.074000000    -3.930000000
H     1.103000000     2.144000000    -4.248000000
O    -0.832000000     4.909000000     5.480000000
H    -0.500000000     4.694000000     4.608000000
H    -0.257000000     4.433000000     6.080000000
O    -1.222000000    -3.226000000     1.129000000
H    -1.490000000    -3.925000000     0.532000000
H    -1.066000000    -2.473000000     0.560000000
O     1.441000000     4.542000000     2.601000000
H     1.616000000     3.643000000     2.880000000
H     2.277000000     4.994000000     2.712000000
O    -1.808000000    -5.173000000    -0.759000000
H    -2.406000000    -5.052000000    -1.496000000
H    -1.350000000    -5.991000000    -0.953000000
O     1.052000000    -3.934000000    -1.600000000
H     1.838000000    -3.493000000    -1.276000000
H     0.410000000    -3.825000000    -0.899000000
O    -5.484000000    -5.022000000     0.741000000
H    -6.311000000    -4.906000000     1.210000000
H    -5.294000000    -4.159000000     0.374000000
O    -2.311000000    -1.505000000    -6.538000000
H    -1.412000000    -1.679000000    -6.816000000
H    -2.681000000    -2.371000000    -6.367000000
O    -6.922000000    -2.661000000    -2.571000000
H    -6.603000000    -2.589000000    -1.672000000
H    -7.439000000    -3.467000000    -2.578000000
O     4.987000000     3.131000000     0.486000000
H     5.632000000     3.705000000     0.900000000
H     5.056000000     2.307000000     0.969000000
O     1.469000000     4.692000000    -2.252000000
H     0.701000000     4.345000000    -1.799000000
H     1.652000000     4.050000000    -2.938000000
O    -3.350000000    -1.511000000     2.143000000
H    -3.547000000    -1.533000000     1.207000000
H    -2.398000000    -1.603000000     2.189000000
O     4.277000000    -5.314000000    -0.687000000
H     4.234000000    -4.368000000    -0.827000000
H     4.343000000    -5.683000000    -1.567000000
O     2.226000000    -4.468000000    -4.514000000
H     2.331000000    -3.606000000    -4.113000000
H     1.871000000    -4.286000000    -5.384000000
O    -0.560000000     3.628000000    -0.911000000
H    -0.585000000     2.762000000    -0.504000000
H    -1.473000000     3.818000000    -1.126000000
O     4.129000000     4.490000000    -1.767000000
H     3.226000000     4.797000000    -1.841000000
H     4.144000000     3.984000000    -0.954000000
O    -5.255000000     1.181000000    -2.751000000
H    -4.565000000     0.573000000    -2.488000000
H    -4.788000000     1.917000000    -3.147000000
O    -7.275000000    -0.483000000    -4.491000000
H    -6.590000000    -0.038000000    -3.991000000
H    -8.048000000    -0.440000000    -3.928000000
O     2.347000000     2.185000000     4.003000000
H     3.092000000     1.603000000     4.154000000
H     2.088000000     2.474000000     4.878000000
O     4.125000000    -2.632000000    -1.208000000
H     3.889000000    -2.188000000    -2.023000000
H     4.807000000    -2.081000000    -0.824000000
O    -3.874000000    -4.242000000    -5.671000000
H    -3.752000000    -5.113000000    -6.050000000
H    -3.502000000    -4.311000000    -4.791000000
O    -2.345000000     3.754000000    -4.545000000
H    -2.269000000     2.823000000    -4.752000000
H    -1.510000000     3.977000000    -4.133000000
O    -0.068000000     0.632000000    -4.106000000
H    -0.247000000     0.407000000    -3.193000000
H    -0.930000000     0.809000000    -4.483000000
O    -7.273000000     3.502000000    -0.196000000
H    -7.452000000     3.616000000     0.738000000
H    -6.608000000     2.814000000    -0.230000000
O     5.343000000     0.756000000     1.906000000
H     5.071000000     0.759000000     2.824000000
H     6.252000000     0.457000000     1.927000000
O     4.715000000     0.321000000     4.416000000
H     5.383000000    -0.363000000     4.380000000
H     4.473000000     0.372000000     5.341000000
O     0.108000000    -3.689000000     3.380000000
H    -0.415000000    -3.434000000     2.619000000
H     0.827000000    -3.057000000     3.398000000
O    -7.784000000     1.356000000    -1.975000000
H    -7.847000000     1.999000000    -1.269000000
H    -6.919000000     1.504000000    -2.358000000
O    -5.380000000     2.210000000    -6.236000000
H    -4.645000000     1.771000000    -5.809000000
H    -5.923000000     1.496000000    -6.571000000
O    -3.751000000    -3.163000000    -2.761000000
H    -4.708000000    -3.169000000    -2.718000000
H    -3.519000000    -2.235000000    -2.790000000
O    -6.715000000    -0.697000000     1.823000000
H    -6.439000000     0.095000000     1.362000000
H    -6.432000000    -0.558000000     2.727000000
O     5.553000000    -0.185000000    -1.148000000
H     5.356000000     0.102000000    -0.256000000
H     5.078000000     0.430000000    -1.707000000
