161
-3039.32033
C    -1.108000000    -0.716000000     0.668000000
H    -1.819000000    -1.256000000     1.288000000
C    -0.029000000    -0.097000000     1.253000000
H     0.040000000    -0.077000000     2.337000000
C     0.956000000     0.596000000     0.522000000
C     2.138000000     1.261000000     1.216000000
H     1.745000000     1.958000000     1.958000000
H     2.618000000     0.511000000     1.847000000
H     2.793000000     1.807000000     0.532000000
C     0.818000000     0.632000000    -0.879000000
H     1.532000000     1.169000000    -1.499000000
C    -0.279000000     0.025000000    -1.506000000
H    -0.261000000    -0.023000000    -2.591000000
C    -1.215000000    -0.740000000    -0.721000000
C    -2.341000000    -1.491000000    -1.298000000
O    -2.409000000    -1.549000000    -2.504000000
O    -3.174000000    -2.016000000    -0.620000000
O     0.337000000    -3.169000000    -2.576000000
H     1.039000000    -2.617000000    -2.922000000
H    -0.467000000    -2.769000000    -2.907000000
O     1.195000000     6.197000000    -1.889000000
H     0.627000000     5.606000000    -2.383000000
H     1.230000000     6.994000000    -2.418000000
O    -3.194000000    -5.002000000     2.902000000
H    -4.132000000    -4.906000000     2.735000000
H    -3.145000000    -5.419000000     3.762000000
O    -2.200000000    -2.924000000    -4.728000000
H    -2.205000000    -2.492000000    -3.874000000
H    -3.113000000    -3.170000000    -4.877000000
O    -2.646000000     2.398000000    -2.325000000
H    -2.153000000     2.141000000    -1.545000000
H    -3.489000000     2.699000000    -1.986000000
O     0.261000000     2.207000000     4.459000000
H     0.687000000     2.995000000     4.121000000
H     0.984000000     1.622000000     4.686000000
O     3.357000000     4.713000000    -0.820000000
H     2.565000000     5.137000000    -1.150000000
H     3.790000000     4.372000000    -1.602000000
O    -5.206000000    -0.804000000     4.991000000
H    -5.281000000    -0.224000000     4.233000000
H    -4.420000000    -1.322000000     4.819000000
O    -6.221000000     2.079000000    -4.217000000
H    -6.063000000     2.765000000    -3.569000000
H    -5.624000000     1.373000000    -3.970000000
O    -1.960000000    -4.026000000     0.664000000
H    -2.566000000    -4.394000000     1.307000000
H    -2.417000000    -3.262000000     0.313000000
O     0.364000000    -1.978000000     5.511000000
H     0.275000000    -2.392000000     6.369000000
H     0.507000000    -1.051000000     5.706000000
O     4.666000000     3.241000000     3.069000000
H     4.688000000     3.823000000     2.309000000
H     3.890000000     3.514000000     3.558000000
O     1.999000000     0.401000000     5.613000000
H     2.291000000     0.820000000     6.423000000
H     2.734000000    -0.155000000     5.353000000
O     0.227000000    -0.020000000    -5.874000000
H    -0.135000000    -0.859000000    -5.590000000
H     0.681000000     0.318000000    -5.103000000
O    -3.590000000    -4.592000000    -2.185000000
H    -4.151000000    -4.290000000    -2.900000000
H    -3.235000000    -3.790000000    -1.804000000
O    -4.378000000    -6.316000000    -0.354000000
H    -5.107000000    -6.075000000     0.217000000
H    -4.228000000    -5.540000000    -0.893000000
O     6.975000000     0.603000000     2.049000000
H     7.096000000     0.751000000     2.987000000
H     6.716000000    -0.316000000     1.983000000
O     5.907000000     1.337000000    -2.569000000
H     6.041000000     0.391000000    -2.505000000
H     6.394000000     1.699000000    -1.829000000
O     3.766000000    -1.484000000    -1.538000000
H     4.723000000    -1.485000000    -1.542000000
H     3.528000000    -0.638000000    -1.157000000
O     7.161000000     2.233000000    -0.336000000
H     6.881000000     1.710000000     0.414000000
H     7.113000000     3.139000000    -0.028000000
O     4.000000000     3.440000000    -3.176000000
H     4.485000000     2.631000000    -3.340000000
H     3.165000000     3.315000000    -3.628000000
O     0.547000000    -4.290000000    -0.163000000
H     0.648000000    -3.657000000    -0.874000000
H    -0.387000000    -4.268000000     0.046000000
O    -2.361000000     2.905000000     5.545000000
H    -2.674000000     3.806000000     5.467000000
H    -1.844000000     2.762000000     4.753000000
O    -5.761000000    -5.313000000     1.947000000
H    -6.370000000    -5.750000000     2.543000000
H    -5.902000000    -4.379000000     2.104000000
O     3.844000000    -3.658000000     0.961000000
H     3.012000000    -3.546000000     1.421000000
H     3.928000000    -2.870000000     0.424000000
O     2.232000000     4.392000000     4.093000000
H     1.723000000     4.848000000     3.423000000
H     2.448000000     5.070000000     4.733000000
O     1.779000000     3.070000000    -5.834000000
H     1.145000000     3.444000000    -6.446000000
H     2.489000000     2.750000000    -6.391000000
O    -6.828000000    -4.164000000    -1.328000000
H    -7.035000000    -3.753000000    -0.489000000
H    -6.658000000    -3.430000000    -1.919000000
O    -7.045000000    -1.570000000     0.145000000
H    -6.598000000    -1.361000000    -0.676000000
H    -7.434000000    -0.741000000     0.424000000
O    -0.308000000    -3.016000000    -6.687000000
H     0.324000000    -3.576000000    -6.237000000
H    -1.041000000    -2.943000000    -6.076000000
O    -1.469000000     2.029000000    -6.753000000
H    -0.921000000     1.295000000    -6.475000000
H    -2.277000000     1.621000000    -7.064000000
O     3.763000000    -1.663000000     5.952000000
H     4.557000000    -1.278000000     6.324000000
H     4.023000000    -2.546000000     5.692000000
O     6.255000000     4.879000000     0.266000000
H     6.490000000     5.760000000     0.559000000
H     5.298000000     4.874000000     0.267000000
O    -4.502000000    -2.194000000     1.604000000
H    -4.006000000    -2.359000000     0.803000000
H    -5.341000000    -1.849000000     1.300000000
O     6.297000000     2.132000000     5.091000000
H     5.890000000     1.299000000     5.330000000
H     5.794000000     2.435000000     4.335000000
O    -4.956000000    -3.614000000    -4.307000000
H    -5.132000000    -3.738000000    -5.240000000
H    -5.538000000    -2.900000000    -4.046000000
O     2.008000000    -1.136000000    -3.627000000
H     2.558000000    -1.659000000    -4.209000000
H     2.506000000    -1.081000000    -2.811000000
O    -2.572000000    -1.735000000     4.180000000
H    -2.701000000    -2.374000000     3.480000000
H    -1.729000000    -1.971000000     4.567000000
O    -2.492000000     3.963000000    -4.441000000
H    -1.777000000     3.825000000    -5.063000000
H    -2.346000000     3.308000000    -3.759000000
O     0.543000000    -5.732000000    -3.118000000
H     0.072000000    -6.078000000    -2.360000000
H     0.659000000    -4.801000000    -2.923000000
O    -1.075000000    -6.747000000    -0.741000000
H    -0.412000000    -6.321000000    -0.197000000
H    -1.900000000    -6.587000000    -0.282000000
O    -4.320000000    -0.025000000    -3.793000000
H    -3.855000000    -0.546000000    -4.448000000
H    -3.698000000     0.063000000    -3.071000000
O     1.802000000    -2.647000000     2.916000000
H     1.295000000    -2.883000000     3.693000000
H     1.356000000    -1.877000000     2.563000000
O    -4.321000000     1.076000000     1.061000000
H    -4.409000000     0.144000000     1.258000000
H    -3.648000000     1.386000000     1.666000000
O    -0.740000000     3.254000000    -0.065000000
H    -0.133000000     2.673000000    -0.523000000
H    -0.207000000     4.009000000     0.183000000
O    -2.257000000     1.945000000     2.488000000
H    -1.650000000     1.589000000     3.136000000
H    -1.704000000     2.163000000     1.737000000
O    -5.436000000    -1.777000000    -2.039000000
H    -4.600000000    -2.022000000    -1.641000000
H    -5.208000000    -1.101000000    -2.678000000
O     0.771000000     6.048000000     2.403000000
H     1.431000000     6.263000000     1.744000000
H    -0.065000000     6.211000000     1.966000000
