161
-3062.45840
C    -1.378000000     0.089000000     0.635000000
H    -2.216000000     0.133000000     1.326000000
C    -0.245000000     0.916000000     0.943000000
H    -0.293000000     1.676000000     1.718000000
C     0.951000000     0.776000000     0.189000000
C     2.109000000     1.562000000     0.652000000
H     2.674000000     1.029000000     1.419000000
H     2.815000000     1.674000000    -0.173000000
H     1.848000000     2.566000000     0.992000000
C     1.037000000    -0.172000000    -0.824000000
H     1.940000000    -0.269000000    -1.421000000
C    -0.080000000    -0.988000000    -1.138000000
H     0.006000000    -1.708000000    -1.948000000
C    -1.246000000    -0.908000000    -0.376000000
C    -2.358000000    -1.852000000    -0.636000000
O    -2.113000000    -2.891000000    -1.202000000
O    -3.456000000    -1.628000000    -0.149000000
O    -1.895000000    -1.905000000    -4.036000000
H    -1.145000000    -1.626000000    -4.562000000
H    -1.536000000    -2.036000000    -3.158000000
O    -1.420000000    -6.035000000     1.979000000
H    -2.161000000    -5.450000000     1.821000000
H    -0.743000000    -5.732000000     1.374000000
O    -5.556000000    -5.887000000    -2.990000000
H    -5.150000000    -5.152000000    -2.531000000
H    -5.701000000    -5.563000000    -3.879000000
O     1.109000000     2.465000000     6.452000000
H     1.123000000     1.512000000     6.364000000
H     0.509000000     2.760000000     5.768000000
O     3.134000000     5.818000000    -2.504000000
H     3.836000000     5.258000000    -2.174000000
H     3.435000000     6.709000000    -2.327000000
O    -4.048000000    -0.168000000     4.096000000
H    -4.860000000    -0.422000000     3.659000000
H    -3.748000000     0.603000000     3.615000000
O    -0.347000000    -4.774000000    -0.331000000
H     0.276000000    -4.389000000     0.285000000
H    -0.979000000    -4.075000000    -0.501000000
O    -2.647000000    -5.796000000    -0.965000000
H    -1.773000000    -5.736000000    -0.579000000
H    -2.704000000    -5.037000000    -1.546000000
O     3.526000000    -4.423000000    -3.002000000
H     2.591000000    -4.564000000    -2.856000000
H     3.719000000    -4.906000000    -3.806000000
O     0.281000000    -1.805000000     2.575000000
H    -0.627000000    -1.861000000     2.872000000
H     0.395000000    -0.888000000     2.324000000
O    -2.197000000    -2.078000000     3.556000000
H    -3.014000000    -1.586000000     3.636000000
H    -2.453000000    -2.903000000     3.144000000
O     3.846000000     4.603000000     3.351000000
H     3.562000000     4.547000000     2.439000000
H     4.656000000     5.111000000     3.320000000
O     3.792000000     1.917000000     4.377000000
H     4.266000000     2.179000000     5.166000000
H     3.495000000     2.742000000     3.992000000
O    -3.350000000     0.633000000    -3.786000000
H    -3.089000000    -0.220000000    -4.132000000
H    -2.525000000     1.069000000    -3.575000000
O     3.791000000    -1.727000000    -2.665000000
H     3.522000000    -1.547000000    -1.764000000
H     3.761000000    -2.681000000    -2.738000000
O    -4.089000000    -3.709000000    -2.573000000
H    -4.229000000    -3.223000000    -3.386000000
H    -3.419000000    -3.209000000    -2.107000000
O    -0.874000000     4.506000000    -2.958000000
H    -1.547000000     4.598000000    -3.632000000
H    -0.642000000     3.578000000    -2.974000000
O    -4.768000000    -6.421000000     0.740000000
H    -4.952000000    -5.664000000     1.297000000
H    -3.990000000    -6.169000000     0.243000000
O    -1.181000000    -0.153000000     6.000000000
H    -0.301000000    -0.401000000     5.715000000
H    -1.739000000    -0.334000000     5.244000000
O    -2.691000000     1.958000000     3.246000000
H    -2.954000000     2.550000000     2.541000000
H    -2.213000000     2.515000000     3.860000000
O     5.393000000     4.107000000     0.222000000
H     5.171000000     4.968000000     0.575000000
H     6.325000000     4.168000000     0.012000000
O     5.341000000     1.645000000    -1.052000000
H     4.982000000     2.480000000    -0.751000000
H     5.824000000     1.307000000    -0.299000000
O     3.021000000    -2.429000000    -5.516000000
H     3.286000000    -2.366000000    -4.598000000
H     3.820000000    -2.684000000    -5.979000000
O     0.325000000    -1.018000000    -5.499000000
H     0.673000000    -0.202000000    -5.858000000
H     1.101000000    -1.532000000    -5.277000000
O    -5.438000000     2.294000000     1.136000000
H    -5.026000000     1.634000000     0.579000000
H    -4.777000000     2.980000000     1.224000000
O    -0.204000000     4.258000000     2.268000000
H    -1.144000000     4.122000000     2.149000000
H    -0.137000000     4.776000000     3.070000000
O    -5.709000000    -4.153000000     2.397000000
H    -6.409000000    -3.501000000     2.357000000
H    -5.726000000    -4.467000000     3.301000000
O     4.155000000    -0.431000000     3.298000000
H     4.084000000     0.426000000     3.719000000
H     4.884000000    -0.337000000     2.686000000
O     4.007000000     1.158000000    -3.317000000
H     4.736000000     1.464000000    -2.778000000
H     3.856000000     0.258000000    -3.027000000
O     2.066000000     3.018000000    -3.228000000
H     2.825000000     2.434000000    -3.221000000
H     2.407000000     3.857000000    -2.920000000
O    -5.886000000    -2.736000000    -0.619000000
H    -5.500000000    -3.041000000    -1.440000000
H    -5.164000000    -2.308000000    -0.159000000
O     3.798000000    -1.133000000     0.268000000
H     4.748000000    -1.015000000     0.295000000
H     3.510000000    -0.958000000     1.164000000
O     1.072000000     5.265000000     0.182000000
H     0.648000000     4.806000000     0.907000000
H     0.463000000     5.168000000    -0.551000000
O     6.445000000    -0.001000000     1.110000000
H     6.926000000    -0.665000000     1.605000000
H     7.083000000     0.697000000     0.962000000
O     3.500000000     6.196000000     0.641000000
H     2.713000000     5.705000000     0.404000000
H     3.247000000     6.693000000     1.419000000
O    -3.127000000    -3.927000000     1.684000000
H    -3.173000000    -3.275000000     0.985000000
H    -4.031000000    -4.023000000     1.982000000
O    -1.130000000     3.815000000     5.406000000
H    -0.916000000     4.007000000     6.319000000
H    -1.116000000     4.669000000     4.973000000
O     1.580000000    -0.396000000     5.158000000
H     2.118000000     0.207000000     4.645000000
H     2.208000000    -0.995000000     5.560000000
O    -8.239000000    -1.248000000     0.004000000
H    -8.713000000    -0.663000000    -0.587000000
H    -7.321000000    -1.155000000    -0.252000000
O     6.686000000    -1.471000000    -3.021000000
H     5.771000000    -1.508000000    -2.742000000
H     6.643000000    -1.386000000    -3.973000000
O    -3.312000000     4.193000000     1.685000000
H    -3.698000000     5.002000000     2.021000000
H    -2.981000000     4.428000000     0.818000000
O    -1.521000000    -5.240000000    -4.279000000
H    -1.751000000    -5.628000000    -5.123000000
H    -2.206000000    -4.591000000    -4.119000000
O    -5.036000000     0.457000000    -0.691000000
H    -4.375000000    -0.202000000    -0.481000000
H    -4.953000000     0.588000000    -1.636000000
O     7.256000000     3.127000000     3.100000000
H     7.506000000     2.845000000     2.219000000
H     6.300000000     3.093000000     3.099000000
O     1.564000000    -3.262000000     0.807000000
H     2.065000000    -2.552000000     0.405000000
H     1.039000000    -2.833000000     1.482000000
O    -0.331000000     1.786000000    -3.308000000
H    -0.347000000     1.177000000    -2.570000000
H     0.590000000     2.034000000    -3.394000000
O    -2.423000000     4.783000000    -0.737000000
H    -1.806000000     4.722000000    -1.466000000
H    -3.271000000     4.560000000    -1.120000000
O     0.852000000    -5.342000000    -2.790000000
H     0.174000000    -5.223000000    -3.455000000
H     0.415000000    -5.139000000    -1.963000000
