161
-3037.72482
C    -0.904000000    -1.145000000    -0.091000000
H    -1.553000000    -2.007000000    -0.227000000
C    -0.047000000    -0.736000000    -1.064000000
H    -0.161000000    -1.086000000    -2.086000000
C     0.803000000     0.347000000    -0.844000000
C     1.771000000     0.801000000    -1.896000000
H     2.469000000     0.052000000    -2.276000000
H     1.320000000     1.176000000    -2.817000000
H     2.361000000     1.652000000    -1.551000000
C     0.735000000     1.000000000     0.375000000
H     1.432000000     1.785000000     0.655000000
C    -0.223000000     0.700000000     1.322000000
H    -0.254000000     1.251000000     2.259000000
C    -1.020000000    -0.461000000     1.080000000
C    -1.957000000    -1.001000000     2.104000000
O    -1.923000000    -0.569000000     3.240000000
O    -2.856000000    -1.759000000     1.821000000
O     2.805000000     0.380000000    -7.652000000
H     2.544000000    -0.524000000    -7.473000000
H     3.368000000     0.617000000    -6.915000000
O    -4.024000000    -3.509000000    -2.458000000
H    -3.272000000    -4.082000000    -2.309000000
H    -3.643000000    -2.688000000    -2.766000000
O    -4.898000000     2.667000000     2.730000000
H    -5.433000000     3.247000000     2.188000000
H    -4.686000000     3.189000000     3.503000000
O    -2.049000000     2.093000000     4.035000000
H    -1.964000000     1.199000000     3.703000000
H    -2.655000000     2.517000000     3.428000000
O    -4.273000000     0.743000000     0.744000000
H    -4.467000000     1.391000000     1.421000000
H    -4.483000000    -0.098000000     1.150000000
O     1.777000000    -4.477000000    -5.103000000
H     1.543000000    -4.226000000    -4.210000000
H     2.572000000    -5.001000000    -5.004000000
O    -2.541000000    -4.556000000     1.982000000
H    -1.757000000    -4.724000000     1.459000000
H    -2.582000000    -3.602000000     2.053000000
O    -1.445000000     2.437000000     6.698000000
H    -1.044000000     1.609000000     6.963000000
H    -1.596000000     2.341000000     5.758000000
O    -5.267000000    -4.904000000     1.206000000
H    -5.461000000    -4.207000000     1.833000000
H    -4.319000000    -4.858000000     1.083000000
O    -2.686000000    -2.445000000     7.466000000
H    -2.700000000    -2.992000000     6.681000000
H    -3.400000000    -1.821000000     7.336000000
O     6.311000000     1.673000000    -3.309000000
H     7.157000000     1.257000000    -3.140000000
H     6.068000000     2.070000000    -2.472000000
O     2.984000000     6.188000000    -3.555000000
H     2.852000000     7.136000000    -3.535000000
H     2.887000000     5.913000000    -2.643000000
O     2.455000000     0.363000000     5.415000000
H     1.605000000    -0.045000000     5.250000000
H     2.545000000     1.017000000     4.721000000
O    -4.658000000     0.069000000     4.180000000
H    -4.000000000    -0.568000000     3.900000000
H    -4.299000000     0.916000000     3.916000000
O    -0.672000000     3.056000000    -6.544000000
H    -1.149000000     3.849000000    -6.301000000
H    -0.059000000     2.915000000    -5.822000000
O    -2.952000000    -1.232000000    -3.647000000
H    -2.268000000    -1.898000000    -3.719000000
H    -2.514000000    -0.414000000    -3.881000000
O     3.215000000     5.277000000    -0.955000000
H     3.124000000     4.773000000    -0.147000000
H     4.123000000     5.138000000    -1.224000000
O     2.278000000    -2.661000000     6.324000000
H     1.955000000    -3.445000000     6.768000000
H     1.530000000    -2.349000000     5.816000000
O     3.555000000    -3.093000000    -1.154000000
H     4.361000000    -2.580000000    -1.089000000
H     3.388000000    -3.389000000    -0.259000000
O    -0.819000000     0.009000000     7.556000000
H    -1.125000000    -0.876000000     7.353000000
H    -0.440000000    -0.064000000     8.432000000
O    -2.695000000    -6.733000000     3.714000000
H    -2.650000000    -5.863000000     3.316000000
H    -2.931000000    -7.315000000     2.991000000
O     6.108000000     1.895000000    -0.369000000
H     6.624000000     2.207000000     0.375000000
H     5.251000000     1.687000000     0.003000000
O    -2.102000000    -5.622000000    -2.083000000
H    -1.653000000    -6.079000000    -2.795000000
H    -1.480000000    -5.641000000    -1.356000000
O    -0.344000000     3.732000000    -3.430000000
H     0.564000000     3.584000000    -3.695000000
H    -0.278000000     4.138000000    -2.565000000
O    -1.199000000    -3.363000000    -4.221000000
H    -0.564000000    -3.879000000    -3.724000000
H    -1.280000000    -3.824000000    -5.056000000
O    -2.752000000     1.575000000    -3.894000000
H    -2.040000000     2.202000000    -3.764000000
H    -3.087000000     1.771000000    -4.769000000
O    -5.797000000    -1.472000000     1.438000000
H    -4.920000000    -1.624000000     1.789000000
H    -6.331000000    -1.270000000     2.206000000
O     4.817000000    -1.486000000    -4.645000000
H     5.334000000    -2.076000000    -5.194000000
H     4.510000000    -2.038000000    -3.926000000
O    -0.468000000    -4.048000000     4.374000000
H    -1.363000000    -3.828000000     4.634000000
H    -0.156000000    -4.634000000     5.063000000
O     0.570000000     5.511000000    -1.390000000
H     0.262000000     6.157000000    -0.755000000
H     1.518000000     5.482000000    -1.262000000
O    -5.502000000    -3.569000000     3.955000000
H    -5.957000000    -4.370000000     3.696000000
H    -6.152000000    -3.076000000     4.455000000
O    -4.991000000    -0.646000000     6.893000000
H    -4.834000000    -0.190000000     6.066000000
H    -5.217000000     0.050000000     7.510000000
O     5.725000000    -1.347000000    -0.863000000
H     6.647000000    -1.474000000    -0.638000000
H     5.488000000    -0.521000000    -0.441000000
O     0.809000000    -3.302000000    -1.986000000
H     1.721000000    -3.278000000    -1.697000000
H     0.389000000    -2.585000000    -1.510000000
O     2.380000000     1.968000000     3.100000000
H     1.561000000     2.453000000     3.196000000
H     2.715000000     2.229000000     2.242000000
O     1.130000000    -5.331000000     2.798000000
H     1.016000000    -6.269000000     2.952000000
H     0.379000000    -4.925000000     3.229000000
O     2.566000000     4.946000000     1.824000000
H     2.138000000     5.324000000     2.592000000
H     3.339000000     5.494000000     1.687000000
O     2.370000000     2.991000000    -4.592000000
H     3.110000000     3.576000000    -4.426000000
H     2.745000000     2.269000000    -5.095000000
O    -2.795000000     4.974000000     1.018000000
H    -2.270000000     4.426000000     0.434000000
H    -3.696000000     4.845000000     0.722000000
O    -6.314000000    -2.515000000    -1.148000000
H    -5.438000000    -2.785000000    -1.425000000
H    -6.183000000    -2.131000000    -0.281000000
O     4.515000000     1.127000000    -5.184000000
H     4.399000000     0.184000000    -5.070000000
H     5.142000000     1.375000000    -4.505000000
O     0.454000000    -1.690000000     3.755000000
H     0.164000000    -2.601000000     3.711000000
H    -0.353000000    -1.179000000     3.692000000
O    -2.091000000     2.532000000    -0.411000000
H    -1.293000000     2.081000000    -0.686000000
H    -2.628000000     1.848000000    -0.011000000
O    -2.707000000    -2.651000000     4.845000000
H    -3.388000000    -3.131000000     4.374000000
H    -2.386000000    -2.008000000     4.213000000
O     0.382000000     3.448000000     4.034000000
H    -0.504000000     3.102000000     3.928000000
H     0.253000000     4.365000000     4.275000000
O     2.826000000    -1.519000000     2.276000000
H     2.726000000    -2.462000000     2.149000000
H     2.212000000    -1.305000000     2.978000000
O     3.848000000     0.659000000     0.903000000
H     3.779000000    -0.003000000     1.591000000
H     3.074000000     0.520000000     0.357000000
O    -0.446000000    -5.308000000     0.049000000
H     0.153000000    -4.640000000    -0.286000000
H     0.006000000    -5.676000000     0.808000000
