161
-3036.18559
C     0.490000000     1.114000000     0.768000000
H     0.613000000     1.956000000     1.445000000
C     0.210000000    -0.137000000     1.289000000
H     0.419000000    -0.279000000     2.346000000
C    -0.202000000    -1.140000000     0.426000000
C    -0.506000000    -2.509000000     0.953000000
H     0.223000000    -3.274000000     0.678000000
H    -0.520000000    -2.465000000     2.044000000
H    -1.469000000    -2.906000000     0.623000000
C    -0.329000000    -0.880000000    -0.962000000
H    -0.550000000    -1.687000000    -1.655000000
C    -0.028000000     0.394000000    -1.469000000
H    -0.022000000     0.622000000    -2.532000000
C     0.328000000     1.433000000    -0.566000000
C     0.505000000     2.850000000    -1.033000000
O     0.711000000     3.194000000    -2.149000000
O     0.132000000     3.718000000    -0.199000000
O    -2.174000000    -6.692000000     3.015000000
H    -2.802000000    -5.970000000     3.019000000
H    -2.716000000    -7.481000000     3.027000000
O    -4.907000000     1.658000000    -3.530000000
H    -4.350000000     1.476000000    -2.773000000
H    -4.428000000     2.324000000    -4.024000000
O    -3.469000000     3.618000000     3.352000000
H    -3.376000000     4.566000000     3.442000000
H    -3.103000000     3.422000000     2.490000000
O    -5.488000000    -1.864000000     3.998000000
H    -4.986000000    -2.063000000     3.208000000
H    -5.265000000    -2.568000000     4.607000000
O     2.319000000     6.823000000     2.696000000
H     2.565000000     6.256000000     3.427000000
H     2.639000000     6.364000000     1.919000000
O     2.341000000    -2.299000000    -1.951000000
H     2.229000000    -3.248000000    -2.003000000
H     1.688000000    -2.015000000    -1.312000000
O    -4.804000000     1.998000000    -0.305000000
H    -4.193000000     1.434000000    -0.780000000
H    -4.314000000     2.806000000    -0.152000000
O     2.505000000    -2.733000000     4.668000000
H     3.110000000    -2.732000000     3.926000000
H     2.714000000    -3.536000000     5.145000000
O    -2.637000000     6.172000000     2.919000000
H    -2.850000000     7.077000000     2.696000000
H    -1.998000000     5.905000000     2.258000000
O     3.211000000     0.192000000     3.818000000
H     3.232000000     0.528000000     2.923000000
H     3.838000000    -0.531000000     3.817000000
O    -4.072000000    -4.904000000    -0.285000000
H    -4.872000000    -5.363000000    -0.028000000
H    -3.402000000    -5.588000000    -0.312000000
O    -2.746000000    -0.317000000     2.985000000
H    -2.448000000    -0.981000000     2.363000000
H    -3.605000000    -0.050000000     2.656000000
O    -4.182000000    -2.853000000     1.807000000
H    -3.706000000    -3.168000000     1.039000000
H    -4.992000000    -3.363000000     1.812000000
O    -3.600000000     5.559000000    -1.162000000
H    -2.872000000     5.668000000    -1.773000000
H    -4.359000000     5.394000000    -1.721000000
O     4.829000000     3.775000000    -1.272000000
H     4.417000000     2.911000000    -1.261000000
H     5.769000000     3.592000000    -1.278000000
O    -2.741000000    -4.244000000     4.521000000
H    -2.158000000    -4.797000000     5.042000000
H    -2.617000000    -3.364000000     4.878000000
O    -0.238000000     7.706000000    -2.119000000
H    -0.674000000     6.861000000    -2.229000000
H    -0.288000000     8.116000000    -2.983000000
O     0.911000000    -1.783000000    -4.429000000
H     1.323000000    -1.860000000    -3.568000000
H     0.671000000    -2.680000000    -4.661000000
O     3.590000000     1.399000000    -0.343000000
H     3.490000000     0.610000000     0.189000000
H     3.378000000     2.118000000     0.253000000
O     3.154000000    -0.974000000     1.056000000
H     2.500000000    -0.816000000     1.736000000
H     3.179000000    -1.927000000     0.965000000
O    -1.394000000     0.232000000    -4.974000000
H    -0.794000000    -0.470000000    -4.721000000
H    -2.265000000    -0.158000000    -4.896000000
O     2.437000000     5.698000000    -2.667000000
H     2.462000000     5.986000000    -1.755000000
H     1.785000000     4.998000000    -2.680000000
O    -3.909000000    -2.644000000    -2.004000000
H    -3.970000000    -3.547000000    -1.690000000
H    -3.574000000    -2.723000000    -2.897000000
O     0.283000000    -4.498000000     3.774000000
H     0.287000000    -3.671000000     4.256000000
H    -0.318000000    -4.347000000     3.044000000
O     2.147000000     7.917000000    -0.858000000
H     2.074000000     8.570000000    -0.162000000
H     1.244000000     7.745000000    -1.123000000
O     3.347000000     0.388000000    -3.035000000
H     3.223000000     0.662000000    -2.126000000
H     2.723000000    -0.327000000    -3.157000000
O    -2.406000000     3.623000000     0.938000000
H    -1.458000000     3.573000000     0.810000000
H    -2.694000000     4.302000000     0.328000000
O     1.914000000    -5.076000000    -0.983000000
H     2.534000000    -5.145000000    -1.708000000
H     1.053000000    -5.087000000    -1.402000000
O     3.205000000     3.286000000     1.663000000
H     2.487000000     3.468000000     2.269000000
H     3.361000000     4.120000000     1.220000000
O     1.825000000     7.425000000    -4.647000000
H     2.532000000     8.071000000    -4.638000000
H     2.022000000     6.844000000    -3.913000000
O     0.610000000     1.592000000    -6.580000000
H     0.137000000     0.876000000    -6.155000000
H     0.198000000     2.386000000    -6.239000000
O    -1.727000000    -1.661000000     5.227000000
H    -2.208000000    -0.964000000     4.780000000
H    -0.934000000    -1.233000000     5.553000000
O     2.618000000     2.765000000    -4.106000000
H     2.962000000     1.879000000    -3.993000000
H     2.003000000     2.877000000    -3.381000000
O     1.188000000     3.989000000     3.171000000
H     0.863000000     4.706000000     2.627000000
H     0.699000000     4.069000000     3.990000000
O    -2.580000000    -3.780000000    -4.383000000
H    -2.308000000    -4.670000000    -4.158000000
H    -2.171000000    -3.611000000    -5.231000000
O    -1.455000000     2.821000000    -3.979000000
H    -1.870000000     1.958000000    -3.973000000
H    -0.579000000     2.668000000    -3.624000000
O     4.965000000     4.459000000    -3.929000000
H     4.054000000     4.404000000    -4.220000000
H     4.946000000     4.150000000    -3.024000000
O    -1.094000000     5.175000000    -2.550000000
H    -0.654000000     4.668000000    -1.868000000
H    -0.831000000     4.755000000    -3.369000000
O     3.648000000     5.624000000     0.442000000
H     3.668000000     6.549000000     0.196000000
H     4.130000000     5.180000000    -0.256000000
O     1.419000000     4.643000000    -5.736000000
H     1.742000000     3.865000000    -5.281000000
H     1.817000000     5.376000000    -5.267000000
O     2.661000000     1.255000000     6.225000000
H     2.767000000     2.198000000     6.101000000
H     2.852000000     0.877000000     5.367000000
O    -3.087000000     0.329000000    -1.325000000
H    -2.134000000     0.341000000    -1.236000000
H    -3.297000000    -0.582000000    -1.530000000
O     1.067000000    -7.891000000    -0.113000000
H     1.012000000    -8.283000000    -0.985000000
H     1.398000000    -7.007000000    -0.269000000
O    -0.439000000     6.101000000     1.304000000
H     0.392000000     6.570000000     1.225000000
H    -0.353000000     5.360000000     0.704000000
O    -1.572000000     1.928000000     4.466000000
H    -2.262000000     2.507000000     4.142000000
H    -1.535000000     1.218000000     3.826000000
O     3.612000000    -4.238000000     1.022000000
H     3.795000000    -4.983000000     1.594000000
H     2.960000000    -4.566000000     0.403000000
O     1.192000000    -1.121000000     6.567000000
H     1.562000000    -1.619000000     5.838000000
H     1.770000000    -0.363000000     6.658000000
O     0.371000000    -5.197000000    -3.103000000
H     1.004000000    -5.854000000    -3.392000000
H    -0.472000000    -5.519000000    -3.424000000
