161
-3042.97976
C     1.252000000     0.752000000    -0.003000000
H     2.161000000     1.306000000     0.215000000
C     0.936000000    -0.217000000     0.926000000
H     1.502000000    -0.380000000     1.839000000
C    -0.296000000    -0.897000000     0.747000000
C    -0.687000000    -1.736000000     1.896000000
H    -1.770000000    -1.871000000     1.860000000
H    -0.145000000    -2.684000000     1.882000000
H    -0.466000000    -1.201000000     2.822000000
C    -1.089000000    -0.707000000    -0.339000000
H    -2.035000000    -1.243000000    -0.326000000
C    -0.820000000     0.286000000    -1.250000000
H    -1.404000000     0.508000000    -2.139000000
C     0.319000000     1.061000000    -1.019000000
C     0.723000000     2.090000000    -2.063000000
O    -0.016000000     2.285000000    -2.993000000
O     1.837000000     2.647000000    -2.053000000
O    -3.954000000    -3.277000000    -5.011000000
H    -4.048000000    -2.586000000    -4.356000000
H    -3.042000000    -3.557000000    -4.935000000
O    -4.553000000    -1.247000000    -3.184000000
H    -4.762000000    -0.613000000    -2.497000000
H    -5.398000000    -1.463000000    -3.576000000
O     0.055000000    -2.103000000     6.600000000
H     0.946000000    -1.836000000     6.373000000
H    -0.164000000    -2.777000000     5.957000000
O     2.394000000    -0.277000000     5.841000000
H     2.567000000     0.498000000     6.376000000
H     2.913000000    -0.970000000     6.249000000
O    -4.682000000    -4.359000000     1.395000000
H    -5.434000000    -4.641000000     1.915000000
H    -4.185000000    -5.162000000     1.239000000
O    -2.444000000    -0.927000000     5.373000000
H    -1.758000000    -1.476000000     5.751000000
H    -3.167000000    -1.530000000     5.201000000
O    -4.684000000    -1.892000000     2.143000000
H    -4.713000000    -2.668000000     1.584000000
H    -4.216000000    -2.179000000     2.927000000
O    -1.562000000     4.888000000     0.464000000
H    -1.894000000     4.036000000     0.747000000
H    -1.906000000     4.997000000    -0.422000000
O    -2.974000000     1.074000000     7.116000000
H    -2.873000000     0.388000000     6.456000000
H    -2.445000000     1.802000000     6.787000000
O     3.777000000    -2.273000000     1.923000000
H     4.377000000    -2.215000000     2.666000000
H     3.967000000    -1.494000000     1.400000000
O     4.494000000    -0.027000000     3.564000000
H     4.145000000     0.691000000     3.037000000
H     3.735000000    -0.367000000     4.039000000
O     3.954000000     2.142000000     2.182000000
H     3.752000000     2.236000000     1.251000000
H     4.033000000     3.040000000     2.502000000
O    -3.898000000    -3.180000000     4.511000000
H    -3.217000000    -3.847000000     4.599000000
H    -4.711000000    -3.639000000     4.721000000
O     4.798000000    -0.694000000    -0.276000000
H     4.007000000    -1.134000000    -0.586000000
H     4.689000000     0.217000000    -0.549000000
O     6.532000000     1.158000000     1.502000000
H     6.180000000     0.723000000     0.725000000
H     5.768000000     1.548000000     1.926000000
O     4.393000000     2.222000000    -5.786000000
H     4.471000000     1.478000000    -5.189000000
H     3.792000000     2.822000000    -5.344000000
O     1.403000000     0.419000000    -4.935000000
H     0.774000000    -0.302000000    -4.960000000
H     0.956000000     1.110000000    -4.446000000
O    -0.701000000     3.258000000    -5.342000000
H    -0.335000000     3.056000000    -4.481000000
H    -1.425000000     3.857000000    -5.161000000
O    -0.133000000    -4.025000000     4.784000000
H     0.483000000    -4.169000000     4.065000000
H    -0.610000000    -4.851000000     4.861000000
O     1.158000000     2.905000000     2.976000000
H     1.880000000     2.874000000     3.604000000
H     0.794000000     2.019000000     2.987000000
O     2.487000000    -0.220000000    -7.306000000
H     2.037000000    -1.065000000    -7.307000000
H     2.150000000     0.229000000    -6.531000000
O    -0.283000000     0.941000000     5.782000000
H    -0.900000000     0.318000000     5.400000000
H     0.535000000     0.450000000     5.864000000
O    -2.521000000     2.478000000     0.370000000
H    -3.447000000     2.409000000     0.140000000
H    -2.153000000     1.625000000     0.140000000
O     4.447000000     1.889000000    -1.512000000
H     3.552000000     2.133000000    -1.745000000
H     4.791000000     2.652000000    -1.048000000
O     2.841000000     3.642000000    -4.186000000
H     2.578000000     3.141000000    -3.413000000
H     2.031000000     4.045000000    -4.497000000
O    -1.242000000     5.991000000    -2.556000000
H    -0.345000000     6.177000000    -2.278000000
H    -1.224000000     6.095000000    -3.508000000
O     5.133000000     4.243000000    -0.460000000
H     4.651000000     5.049000000    -0.645000000
H     5.880000000     4.526000000     0.067000000
O     2.710000000    -4.607000000     0.054000000
H     2.509000000    -3.672000000     0.082000000
H     2.028000000    -4.981000000    -0.504000000
O     2.506000000    -2.166000000    -1.682000000
H     2.364000000    -2.805000000    -2.380000000
H     1.736000000    -1.599000000    -1.716000000
O     0.647000000    -5.520000000    -1.429000000
H    -0.296000000    -5.602000000    -1.575000000
H     1.005000000    -5.303000000    -2.289000000
O     4.947000000     0.109000000    -3.747000000
H     5.027000000     0.707000000    -3.004000000
H     4.489000000    -0.653000000    -3.394000000
O    -2.721000000     3.273000000    -2.826000000
H    -1.885000000     2.819000000    -2.725000000
H    -2.528000000     4.184000000    -2.603000000
O     4.270000000     6.648000000    -1.776000000
H     3.695000000     6.372000000    -2.489000000
H     3.939000000     7.509000000    -1.520000000
O     5.612000000     3.996000000    -3.379000000
H     5.105000000     4.660000000    -2.912000000
H     4.962000000     3.513000000    -3.889000000
O    -3.326000000     1.035000000    -4.344000000
H    -3.052000000     1.679000000    -3.691000000
H    -3.755000000     0.347000000    -3.835000000
O    -0.232000000    -1.982000000    -5.549000000
H    -0.966000000    -1.406000000    -5.763000000
H    -0.638000000    -2.744000000    -5.135000000
O     1.101000000     7.547000000    -3.329000000
H     1.402000000     6.803000000    -2.807000000
H     1.681000000     8.266000000    -3.076000000
O    -3.467000000    -3.661000000    -1.126000000
H    -4.033000000    -3.886000000    -0.387000000
H    -3.896000000    -2.909000000    -1.535000000
O     1.036000000     4.835000000     1.281000000
H     1.155000000     4.193000000     1.980000000
H     0.098000000     4.808000000     1.089000000
O    -5.252000000     2.772000000    -1.615000000
H    -5.825000000     3.523000000    -1.768000000
H    -4.469000000     2.959000000    -2.133000000
O    -1.699000000    -0.068000000    -6.262000000
H    -1.482000000     0.613000000    -6.899000000
H    -2.195000000     0.390000000    -5.582000000
O    -4.964000000     0.219000000    -0.882000000
H    -5.248000000     1.119000000    -1.040000000
H    -5.317000000     0.004000000    -0.018000000
O     1.650000000     5.219000000    -1.736000000
H     1.624000000     5.270000000    -0.781000000
H     1.758000000     4.286000000    -1.924000000
O    -0.757000000     2.172000000    -7.894000000
H    -0.817000000     2.500000000    -6.997000000
H    -0.312000000     2.870000000    -8.375000000
O     1.744000000    -3.990000000     2.871000000
H     2.340000000    -4.171000000     3.598000000
H     2.298000000    -3.588000000     2.202000000
O    -5.224000000     0.752000000     2.222000000
H    -5.030000000    -0.124000000     1.887000000
H    -5.402000000     0.619000000     3.153000000
O    -2.003000000    -5.696000000    -2.123000000
H    -2.507000000    -4.946000000    -1.809000000
H    -2.507000000    -6.459000000    -1.840000000
O    -0.801000000    -5.392000000     1.408000000
H    -1.184000000    -5.007000000     2.196000000
H     0.054000000    -4.970000000     1.327000000
