161
-3032.62927
C    -0.603000000     1.309000000     0.323000000
H    -0.961000000     2.260000000     0.710000000
C     0.192000000     0.532000000     1.179000000
H     0.493000000     0.889000000     2.160000000
C     0.713000000    -0.704000000     0.744000000
C     1.576000000    -1.544000000     1.604000000
H     2.043000000    -0.898000000     2.350000000
H     0.908000000    -2.266000000     2.080000000
H     2.335000000    -2.005000000     0.968000000
C     0.249000000    -1.213000000    -0.537000000
H     0.563000000    -2.237000000    -0.722000000
C    -0.565000000    -0.467000000    -1.311000000
H    -0.632000000    -0.788000000    -2.347000000
C    -0.937000000     0.852000000    -0.935000000
C    -1.665000000     1.783000000    -1.860000000
O    -1.413000000     1.773000000    -3.041000000
O    -2.288000000     2.724000000    -1.357000000
O    -1.152000000    -4.175000000     2.316000000
H    -1.040000000    -3.258000000     2.566000000
H    -1.553000000    -4.585000000     3.083000000
O    -1.104000000    -6.576000000     1.144000000
H    -0.615000000    -7.080000000     1.794000000
H    -1.016000000    -5.667000000     1.429000000
O     0.501000000     4.506000000     4.890000000
H     1.363000000     4.665000000     4.504000000
H     0.349000000     5.262000000     5.457000000
O     0.617000000    -1.695000000     5.691000000
H     0.681000000    -0.799000000     5.363000000
H    -0.294000000    -1.783000000     5.971000000
O    -3.488000000     0.814000000     3.689000000
H    -3.515000000     1.755000000     3.516000000
H    -4.068000000     0.691000000     4.440000000
O    -1.965000000     5.493000000    -0.431000000
H    -1.838000000     4.582000000    -0.697000000
H    -2.603000000     5.447000000     0.281000000
O     4.802000000    -1.966000000    -1.138000000
H     5.242000000    -1.117000000    -1.090000000
H     5.207000000    -2.404000000    -1.887000000
O    -6.490000000     4.173000000    -4.408000000
H    -5.582000000     3.988000000    -4.166000000
H    -6.984000000     4.043000000    -3.599000000
O    -1.944000000    -1.429000000     3.076000000
H    -2.841000000    -1.539000000     3.390000000
H    -1.901000000    -0.518000000     2.787000000
O    -2.074000000     3.395000000     2.515000000
H    -2.011000000     3.144000000     3.436000000
H    -1.167000000     3.544000000     2.246000000
O    -4.423000000    -3.594000000    -2.012000000
H    -3.581000000    -4.043000000    -2.083000000
H    -4.405000000    -3.186000000    -1.146000000
O     2.484000000    -3.305000000    -1.987000000
H     2.409000000    -2.935000000    -2.866000000
H     3.306000000    -2.950000000    -1.647000000
O    -1.431000000     2.522000000     5.127000000
H    -1.782000000     2.428000000     6.013000000
H    -0.908000000     3.323000000     5.161000000
O     3.149000000    -2.422000000     6.083000000
H     2.270000000    -2.101000000     5.883000000
H     3.070000000    -3.375000000     6.048000000
O    -0.163000000     7.523000000    -0.520000000
H     0.608000000     7.184000000    -0.065000000
H    -0.859000000     6.901000000    -0.308000000
O     2.108000000     6.645000000     0.078000000
H     1.980000000     5.790000000    -0.333000000
H     3.026000000     6.857000000    -0.092000000
O     5.384000000    -1.595000000     4.520000000
H     4.558000000    -1.698000000     4.993000000
H     6.043000000    -1.972000000     5.103000000
O    -1.473000000    -2.656000000    -4.886000000
H    -2.414000000    -2.825000000    -4.936000000
H    -1.239000000    -2.866000000    -3.982000000
O     0.597000000     2.499000000    -6.386000000
H     0.778000000     2.344000000    -5.459000000
H     0.061000000     1.752000000    -6.654000000
O    -4.171000000    -0.305000000     0.880000000
H    -3.979000000     0.618000000     1.046000000
H    -4.304000000    -0.682000000     1.750000000
O     2.942000000     4.891000000     3.101000000
H     3.555000000     4.203000000     2.844000000
H     3.069000000     5.581000000     2.450000000
O     0.359000000     4.228000000     1.418000000
H     1.050000000     4.146000000     0.761000000
H     0.797000000     4.605000000     2.181000000
O    -6.690000000     1.782000000    -0.660000000
H    -6.828000000     1.371000000     0.193000000
H    -5.873000000     2.271000000    -0.561000000
O    -0.285000000     4.442000000    -2.942000000
H    -0.716000000     5.055000000    -3.539000000
H    -0.868000000     3.683000000    -2.916000000
O     0.954000000     1.545000000    -3.903000000
H     0.010000000     1.412000000    -3.814000000
H     1.311000000     1.306000000    -3.047000000
O     4.184000000     0.983000000     3.425000000
H     4.167000000     0.031000000     3.520000000
H     4.467000000     1.304000000     4.282000000
O     5.239000000    -4.983000000     1.204000000
H     4.904000000    -5.550000000     0.509000000
H     4.500000000    -4.419000000     1.430000000
O     1.238000000    -4.239000000     4.472000000
H     0.608000000    -3.599000000     4.804000000
H     1.649000000    -3.805000000     3.724000000
O    -2.650000000     4.059000000    -5.137000000
H    -3.088000000     3.836000000    -5.958000000
H    -2.085000000     4.798000000    -5.359000000
O    -6.134000000     2.197000000     2.109000000
H    -5.951000000     2.323000000     3.041000000
H    -5.283000000     2.294000000     1.683000000
O     1.482000000    -5.807000000    -0.766000000
H     0.553000000    -5.723000000    -0.980000000
H     1.837000000    -4.927000000    -0.891000000
O     4.361000000     2.741000000     1.584000000
H     4.477000000     1.985000000     2.160000000
H     5.120000000     2.716000000     1.001000000
O     0.694000000    -4.979000000    -4.763000000
H    -0.170000000    -4.605000000    -4.938000000
H     0.730000000    -5.062000000    -3.810000000
O     3.775000000     2.382000000    -4.227000000
H     2.849000000     2.237000000    -4.423000000
H     3.771000000     2.937000000    -3.447000000
O     1.788000000     3.956000000    -0.989000000
H     2.195000000     3.168000000    -1.350000000
H     0.929000000     3.996000000    -1.410000000
O     2.676000000     1.202000000    -1.513000000
H     3.476000000     0.770000000    -1.812000000
H     2.151000000     0.498000000    -1.132000000
O    -3.310000000     1.119000000    -4.608000000
H    -2.607000000     1.109000000    -3.958000000
H    -3.412000000     2.043000000    -4.835000000
O    -4.252000000     5.604000000     1.777000000
H    -3.559000000     5.855000000     2.388000000
H    -4.734000000     4.913000000     2.233000000
O    -4.150000000     4.064000000    -2.730000000
H    -3.828000000     4.042000000    -3.631000000
H    -3.582000000     3.455000000    -2.258000000
O     0.806000000     1.034000000     5.204000000
H     1.506000000     1.657000000     5.401000000
H     0.020000000     1.573000000     5.124000000
O    -4.872000000     6.562000000    -1.565000000
H    -4.464000000     5.742000000    -1.847000000
H    -4.182000000     7.218000000    -1.662000000
O    -5.656000000    -0.229000000    -5.179000000
H    -5.870000000    -0.372000000    -4.257000000
H    -4.894000000     0.350000000    -5.161000000
O    -1.286000000    -4.286000000    -2.587000000
H    -1.980000000    -4.941000000    -2.515000000
H    -1.258000000    -3.871000000    -1.725000000
O    -3.905000000     2.603000000     0.674000000
H    -3.315000000     3.033000000     1.293000000
H    -3.481000000     2.714000000    -0.177000000
O    -1.446000000     0.867000000    -7.172000000
H    -1.107000000    -0.020000000    -7.050000000
H    -2.076000000     0.982000000    -6.461000000
O     2.144000000    -2.285000000    -4.652000000
H     2.768000000    -1.581000000    -4.830000000
H     2.428000000    -3.004000000    -5.217000000
O     0.352000000    -1.466000000    -6.690000000
H    -0.360000000    -2.027000000    -6.382000000
H     1.055000000    -1.600000000    -6.055000000
O    -2.087000000    -3.074000000    -0.266000000
H    -1.697000000    -2.200000000    -0.269000000
H    -1.855000000    -3.437000000     0.589000000
