161
-3063.02620
C    -1.425000000    -0.023000000     0.485000000
H    -2.372000000    -0.160000000     1.002000000
C    -0.527000000    -1.124000000     0.520000000
H    -0.945000000    -2.092000000     0.783000000
C     0.788000000    -0.996000000     0.039000000
C     1.738000000    -2.155000000     0.153000000
H     1.152000000    -3.075000000     0.097000000
H     2.396000000    -2.216000000    -0.716000000
H     2.253000000    -1.943000000     1.092000000
C     1.132000000     0.240000000    -0.469000000
H     2.116000000     0.344000000    -0.918000000
C     0.249000000     1.320000000    -0.573000000
H     0.651000000     2.257000000    -0.949000000
C    -0.993000000     1.219000000    -0.042000000
C    -1.840000000     2.496000000    -0.053000000
O    -1.314000000     3.583000000    -0.310000000
O    -3.056000000     2.330000000    -0.137000000
O    -3.663000000     2.028000000    -2.876000000
H    -3.336000000     1.988000000    -1.978000000
H    -4.554000000     1.681000000    -2.822000000
O     3.174000000    -1.131000000    -4.683000000
H     3.753000000    -1.709000000    -5.180000000
H     3.686000000    -0.886000000    -3.912000000
O     2.133000000     3.654000000    -3.814000000
H     1.326000000     3.847000000    -3.337000000
H     1.838000000     3.341000000    -4.669000000
O     6.283000000    -1.258000000    -3.652000000
H     5.408000000    -1.150000000    -3.280000000
H     6.352000000    -2.196000000    -3.830000000
O    -0.468000000    -4.869000000     3.824000000
H    -0.510000000    -4.669000000     2.888000000
H     0.378000000    -5.302000000     3.938000000
O    -6.877000000     4.374000000     0.149000000
H    -6.127000000     4.221000000     0.723000000
H    -6.509000000     4.820000000    -0.614000000
O    -6.636000000    -0.337000000     1.156000000
H    -7.367000000    -0.952000000     1.221000000
H    -6.678000000     0.170000000     1.967000000
O     4.318000000     0.006000000    -2.241000000
H     4.320000000     0.935000000    -2.009000000
H     4.622000000    -0.439000000    -1.450000000
O    -6.722000000     1.626000000     3.003000000
H    -7.535000000     2.105000000     3.167000000
H    -6.106000000     2.296000000     2.707000000
O    -1.718000000     3.696000000     3.918000000
H    -1.465000000     2.838000000     4.259000000
H    -0.890000000     4.164000000     3.808000000
O    -3.194000000    -5.287000000     4.257000000
H    -3.755000000    -4.730000000     3.718000000
H    -2.303000000    -5.048000000     4.003000000
O    -5.012000000     4.425000000     2.014000000
H    -5.067000000     4.559000000     2.960000000
H    -4.110000000     4.653000000     1.791000000
O     1.637000000    -4.097000000    -3.635000000
H     0.858000000    -4.585000000    -3.901000000
H     1.300000000    -3.250000000    -3.342000000
O     3.627000000     0.479000000     1.735000000
H     4.247000000    -0.059000000     1.243000000
H     2.898000000     0.620000000     1.130000000
O    -0.250000000    -5.365000000     1.117000000
H    -1.003000000    -5.048000000     0.619000000
H    -0.275000000    -6.316000000     1.008000000
O     2.756000000     2.575000000     3.463000000
H     3.192000000     3.310000000     3.032000000
H     3.008000000     1.811000000     2.944000000
O    -0.812000000    -5.325000000    -3.685000000
H    -1.380000000    -5.919000000    -4.176000000
H    -0.818000000    -5.670000000    -2.793000000
O    -2.258000000    -1.585000000     5.049000000
H    -2.700000000    -2.201000000     4.464000000
H    -2.929000000    -0.937000000     5.265000000
O     3.942000000     2.934000000    -1.738000000
H     4.268000000     3.589000000    -1.121000000
H     3.359000000     3.421000000    -2.320000000
O    -5.467000000     1.238000000    -0.853000000
H    -5.647000000     0.630000000    -0.136000000
H    -4.717000000     1.750000000    -0.551000000
O     0.983000000     4.983000000     0.586000000
H     1.481000000     4.987000000    -0.231000000
H     0.143000000     4.586000000     0.352000000
O     4.491000000    -3.650000000    -3.811000000
H     4.743000000    -4.432000000    -4.303000000
H     3.540000000    -3.600000000    -3.911000000
O    -0.307000000    -0.273000000     3.732000000
H    -0.894000000    -0.828000000     4.245000000
H    -0.337000000    -0.645000000     2.850000000
O     1.956000000    -7.701000000    -0.582000000
H     2.702000000    -7.824000000    -1.169000000
H     2.083000000    -6.827000000    -0.213000000
O     5.300000000    -1.013000000     0.296000000
H     6.249000000    -0.926000000     0.199000000
H     5.160000000    -1.947000000     0.451000000
O     4.683000000    -3.290000000     3.842000000
H     3.746000000    -3.150000000     3.978000000
H     5.056000000    -2.409000000     3.815000000
O     5.522000000    -0.456000000     3.989000000
H     6.295000000    -0.126000000     3.533000000
H     4.786000000    -0.022000000     3.558000000
O    -2.542000000    -4.543000000    -0.045000000
H    -2.666000000    -3.672000000    -0.423000000
H    -3.352000000    -4.714000000     0.434000000
O     0.849000000     4.807000000     3.198000000
H     0.825000000     4.865000000     2.243000000
H     1.434000000     4.071000000     3.379000000
O     6.181000000    -4.087000000    -1.780000000
H     5.575000000    -4.252000000    -1.058000000
H     5.623000000    -3.790000000    -2.499000000
O     6.691000000     2.445000000    -2.758000000
H     7.348000000     2.906000000    -2.237000000
H     6.041000000     2.151000000    -2.120000000
O    -4.248000000     0.361000000     5.450000000
H    -4.515000000     0.903000000     4.707000000
H    -4.977000000     0.427000000     6.068000000
O    -0.402000000     4.613000000    -2.614000000
H    -1.118000000     5.237000000    -2.734000000
H    -0.645000000     4.115000000    -1.834000000
O    -5.754000000     6.654000000    -1.222000000
H    -4.895000000     6.262000000    -1.068000000
H    -5.880000000     6.590000000    -2.169000000
O    -3.910000000    -2.707000000     3.355000000
H    -3.980000000    -2.579000000     2.409000000
H    -4.773000000    -2.469000000     3.693000000
O    -2.702000000     5.875000000     1.363000000
H    -2.702000000     6.514000000     0.650000000
H    -2.141000000     5.166000000     1.049000000
O    -1.212000000    -6.687000000    -1.360000000
H    -1.593000000    -5.955000000    -0.875000000
H    -0.665000000    -7.140000000    -0.718000000
O    -2.287000000     6.599000000    -3.191000000
H    -2.992000000     6.815000000    -2.581000000
H    -2.065000000     7.433000000    -3.605000000
O     1.991000000    -2.837000000     4.652000000
H     1.686000000    -2.926000000     5.555000000
H     1.673000000    -1.978000000     4.375000000
O    -4.608000000    -2.005000000     0.425000000
H    -5.339000000    -1.494000000     0.773000000
H    -4.976000000    -2.469000000    -0.326000000
O    -3.745000000     4.692000000    -1.305000000
H    -3.559000000     3.960000000    -0.717000000
H    -3.479000000     4.379000000    -2.169000000
O     4.920000000    -3.731000000     0.802000000
H     4.040000000    -4.107000000     0.773000000
H     5.218000000    -3.891000000     1.698000000
O    -3.803000000     1.917000000     2.695000000
H    -3.174000000     2.547000000     3.046000000
H    -3.574000000     1.839000000     1.769000000
O    -2.002000000     1.422000000    -4.790000000
H    -2.497000000     1.550000000    -3.981000000
H    -1.921000000     0.472000000    -4.874000000
O     2.570000000    -5.125000000     1.278000000
H     2.745000000    -5.344000000     2.193000000
H     1.616000000    -5.125000000     1.209000000
O     0.725000000    -1.449000000    -3.409000000
H     0.760000000    -0.894000000    -2.629000000
H     1.497000000    -1.197000000    -3.916000000
O    -2.200000000    -1.362000000    -3.559000000
H    -1.388000000    -1.733000000    -3.905000000
H    -2.095000000    -1.400000000    -2.609000000
O    -5.674000000     4.089000000    -4.601000000
H    -4.914000000     3.918000000    -4.045000000
H    -5.765000000     5.041000000    -4.597000000
