161
-3036.75014
C    -1.371000000     0.550000000     0.123000000
H    -2.398000000     0.749000000     0.418000000
C    -1.046000000    -0.840000000     0.127000000
H    -1.763000000    -1.631000000     0.330000000
C     0.287000000    -1.172000000    -0.009000000
C     0.668000000    -2.641000000     0.203000000
H     0.900000000    -2.864000000     1.247000000
H    -0.108000000    -3.311000000    -0.172000000
H     1.488000000    -2.859000000    -0.484000000
C     1.290000000    -0.181000000    -0.325000000
H     2.325000000    -0.502000000    -0.413000000
C     0.927000000     1.130000000    -0.454000000
H     1.769000000     1.771000000    -0.700000000
C    -0.371000000     1.555000000    -0.058000000
C    -0.737000000     3.031000000     0.034000000
O     0.042000000     3.918000000    -0.231000000
O    -1.905000000     3.289000000     0.360000000
O    -0.691000000     7.273000000     3.307000000
H     0.096000000     6.835000000     2.982000000
H    -1.325000000     7.187000000     2.595000000
O    -0.120000000     2.014000000    -3.773000000
H    -0.976000000     2.007000000    -3.345000000
H    -0.319000000     1.982000000    -4.708000000
O    -0.877000000    -5.354000000     2.850000000
H    -1.250000000    -4.785000000     2.177000000
H    -1.619000000    -5.577000000     3.413000000
O    -4.600000000     6.037000000    -0.468000000
H    -3.800000000     5.660000000    -0.102000000
H    -4.447000000     6.982000000    -0.456000000
O    -0.039000000     8.168000000    -2.052000000
H    -0.545000000     8.980000000    -2.048000000
H    -0.500000000     7.597000000    -1.436000000
O    -4.511000000     2.558000000     0.574000000
H    -5.135000000     3.252000000     0.357000000
H    -3.652000000     2.968000000     0.471000000
O     4.026000000     1.015000000    -2.441000000
H     4.664000000     0.807000000    -1.759000000
H     4.556000000     1.264000000    -3.198000000
O    -4.522000000     0.580000000     4.738000000
H    -4.431000000     0.588000000     5.691000000
H    -3.709000000     0.969000000     4.416000000
O     1.353000000     5.164000000     2.215000000
H     2.196000000     4.721000000     2.304000000
H     0.958000000     4.772000000     1.436000000
O     1.103000000    -7.716000000     2.923000000
H     0.454000000    -7.164000000     2.486000000
H     1.945000000    -7.399000000     2.597000000
O    -1.676000000     6.097000000    -0.654000000
H    -1.871000000     6.094000000    -1.592000000
H    -1.145000000     5.313000000    -0.517000000
O     2.333000000     7.372000000     0.618000000
H     3.277000000     7.218000000     0.654000000
H     1.971000000     6.796000000     1.291000000
O     2.312000000    -6.304000000    -1.676000000
H     2.545000000    -7.097000000    -2.159000000
H     1.399000000    -6.139000000    -1.913000000
O     2.163000000    -3.264000000    -3.116000000
H     1.349000000    -3.516000000    -2.681000000
H     2.423000000    -2.449000000    -2.686000000
O    -2.415000000    -6.376000000     0.013000000
H    -2.103000000    -6.566000000     0.898000000
H    -3.175000000    -6.946000000    -0.102000000
O     4.952000000    -2.764000000     0.712000000
H     5.337000000    -3.416000000     1.297000000
H     4.584000000    -3.276000000    -0.009000000
O    -4.972000000    -4.477000000     1.214000000
H    -5.479000000    -4.374000000     2.019000000
H    -5.401000000    -5.197000000     0.750000000
O    -2.404000000    -3.421000000    -2.738000000
H    -3.005000000    -3.201000000    -2.027000000
H    -2.879000000    -4.067000000    -3.261000000
O     3.418000000     3.315000000    -4.325000000
H     3.421000000     3.554000000    -3.398000000
H     2.712000000     2.673000000    -4.405000000
O    -2.956000000    -2.339000000     2.511000000
H    -3.744000000    -2.033000000     2.959000000
H    -3.239000000    -3.118000000     2.032000000
O     5.639000000     0.016000000    -0.375000000
H     5.593000000     0.588000000     0.391000000
H     5.589000000    -0.869000000    -0.015000000
O    -2.739000000     1.864000000    -2.887000000
H    -3.543000000     1.909000000    -3.404000000
H    -2.687000000     0.952000000    -2.601000000
O     3.360000000     4.402000000    -1.729000000
H     3.092000000     5.260000000    -2.058000000
H     2.689000000     4.170000000    -1.087000000
O     7.392000000    -0.006000000    -2.427000000
H     6.704000000    -0.131000000    -1.773000000
H     6.972000000    -0.221000000    -3.260000000
O     3.123000000    -1.363000000     2.327000000
H     2.356000000    -1.861000000     2.044000000
H     3.721000000    -1.399000000     1.581000000
O    -2.323000000     1.678000000     3.747000000
H    -1.771000000     2.458000000     3.812000000
H    -2.506000000     1.592000000     2.812000000
O     3.596000000     3.362000000     2.754000000
H     4.448000000     3.491000000     3.170000000
H     3.182000000     2.666000000     3.265000000
O     2.555000000     6.954000000    -2.330000000
H     3.080000000     7.563000000    -1.811000000
H     1.663000000     7.065000000    -1.999000000
O     4.250000000    -3.390000000    -5.233000000
H     3.546000000    -3.144000000    -4.633000000
H     4.361000000    -4.331000000    -5.098000000
O    -4.253000000    -2.797000000    -0.885000000
H    -4.383000000    -1.965000000    -0.430000000
H    -4.421000000    -3.463000000    -0.219000000
O     4.766000000    -1.331000000     4.630000000
H     4.293000000    -1.229000000     3.804000000
H     5.531000000    -1.859000000     4.404000000
O     1.820000000    -0.945000000     4.814000000
H     2.199000000    -1.214000000     3.978000000
H     0.898000000    -1.195000000     4.750000000
O     4.453000000    -4.715000000    -1.184000000
H     5.137000000    -4.789000000    -1.850000000
H     3.692000000    -5.145000000    -1.573000000
O     2.383000000    -5.173000000     4.895000000
H     2.135000000    -5.972000000     5.360000000
H     2.437000000    -5.437000000     3.976000000
O    -0.434000000    -2.364000000     4.119000000
H    -0.809000000    -3.241000000     4.199000000
H    -0.844000000    -1.998000000     3.335000000
O     0.367000000     4.651000000    -2.881000000
H     0.560000000     4.528000000    -1.951000000
H     0.429000000     3.774000000    -3.257000000
O    -6.237000000     4.071000000    -1.547000000
H    -5.461000000     4.611000000    -1.397000000
H    -5.958000000     3.427000000    -2.198000000
O    -5.949000000    -0.324000000    -2.446000000
H    -5.548000000    -1.155000000    -2.193000000
H    -6.653000000    -0.194000000    -1.810000000
O     5.685000000     3.360000000    -0.906000000
H     5.310000000     2.752000000    -0.269000000
H     4.942000000     3.631000000    -1.445000000
O    -4.795000000    -0.211000000     0.452000000
H    -5.608000000    -0.487000000     0.876000000
H    -4.877000000     0.739000000     0.371000000
O    -2.066000000     4.547000000    -4.400000000
H    -2.306000000     4.109000000    -3.584000000
H    -1.280000000     5.047000000    -4.182000000
O    -0.739000000     3.856000000     3.745000000
H    -0.054000000     4.359000000     3.305000000
H    -0.338000000     3.576000000     4.568000000
O    -3.138000000     5.026000000     1.996000000
H    -2.582000000     4.683000000     2.696000000
H    -2.806000000     4.610000000     1.201000000
O     2.892000000    -6.102000000     1.380000000
H     3.757000000    -6.489000000     1.516000000
H     3.016000000    -5.485000000     0.659000000
O    -0.618000000    -5.686000000    -1.903000000
H    -1.053000000    -4.963000000    -2.354000000
H    -1.223000000    -5.931000000    -1.203000000
O     1.489000000    -0.235000000    -3.933000000
H     0.787000000     0.416000000    -3.928000000
H     2.130000000     0.098000000    -3.306000000
O    -1.642000000    -0.986000000    -3.254000000
H    -1.989000000    -1.864000000    -3.097000000
H    -0.834000000    -0.953000000    -2.741000000
O    -6.578000000     1.940000000     3.252000000
H    -6.070000000     1.309000000     3.761000000
H    -5.966000000     2.262000000     2.591000000
