161
-3047.91869
C    -1.244000000     0.840000000    -0.020000000
H    -2.140000000     1.400000000     0.233000000
C    -1.129000000    -0.458000000     0.406000000
H    -1.984000000    -0.983000000     0.824000000
C     0.012000000    -1.206000000     0.353000000
C     0.113000000    -2.602000000     0.963000000
H     0.276000000    -3.368000000     0.202000000
H     1.051000000    -2.692000000     1.514000000
H    -0.826000000    -2.781000000     1.492000000
C     1.149000000    -0.550000000    -0.212000000
H     2.073000000    -1.110000000    -0.335000000
C     1.116000000     0.775000000    -0.566000000
H     1.991000000     1.330000000    -0.897000000
C    -0.111000000     1.535000000    -0.475000000
C    -0.103000000     2.902000000    -0.984000000
O     0.939000000     3.545000000    -1.182000000
O    -1.177000000     3.420000000    -1.320000000
O    -3.608000000     2.132000000     3.754000000
H    -4.421000000     1.983000000     3.272000000
H    -3.326000000     3.006000000     3.484000000
O    -1.494000000     0.748000000    -3.204000000
H    -1.834000000     1.285000000    -2.488000000
H    -1.524000000    -0.147000000    -2.867000000
O     0.684000000     0.200000000     3.216000000
H     0.829000000     1.147000000     3.212000000
H     0.687000000    -0.046000000     2.291000000
O    -1.733000000     5.060000000    -4.728000000
H    -1.000000000     4.668000000    -4.252000000
H    -2.412000000     5.179000000    -4.064000000
O     1.743000000     7.299000000    -4.442000000
H     1.915000000     6.367000000    -4.575000000
H     1.835000000     7.428000000    -3.498000000
O    -0.393000000    -4.887000000    -2.154000000
H    -0.828000000    -4.316000000    -1.521000000
H    -0.758000000    -5.755000000    -1.985000000
O    -3.765000000     2.206000000    -1.595000000
H    -4.135000000     2.458000000    -2.441000000
H    -3.182000000     2.929000000    -1.364000000
O    -3.421000000    -2.993000000     3.914000000
H    -2.906000000    -2.918000000     4.718000000
H    -3.312000000    -2.146000000     3.481000000
O     3.691000000    -0.237000000    -3.511000000
H     4.241000000    -0.336000000    -2.733000000
H     3.738000000     0.696000000    -3.721000000
O     0.861000000     2.921000000     2.615000000
H     0.414000000     3.423000000     3.297000000
H     0.958000000     3.538000000     1.889000000
O     4.717000000    -6.447000000     2.760000000
H     4.831000000    -5.718000000     3.371000000
H     4.280000000    -6.058000000     2.003000000
O    -3.580000000     6.675000000    -0.055000000
H    -4.343000000     6.829000000     0.502000000
H    -3.289000000     7.551000000    -0.310000000
O     1.386000000     7.126000000    -1.676000000
H     1.231000000     8.040000000    -1.434000000
H     0.576000000     6.676000000    -1.438000000
O     2.326000000    -4.496000000    -2.079000000
H     1.486000000    -4.935000000    -1.947000000
H     2.717000000    -4.946000000    -2.828000000
O    -2.680000000    -7.748000000     1.420000000
H    -2.675000000    -6.791000000     1.452000000
H    -3.560000000    -7.972000000     1.117000000
O    -2.512000000    -3.550000000    -0.763000000
H    -2.897000000    -4.320000000    -1.182000000
H    -3.036000000    -3.419000000     0.027000000
O     2.882000000    -5.130000000     1.054000000
H     2.136000000    -5.702000000     0.870000000
H     3.119000000    -4.764000000     0.202000000
O     5.054000000     1.349000000     0.774000000
H     4.480000000     2.106000000     0.886000000
H     5.048000000     0.915000000     1.627000000
O    -1.310000000     6.023000000    -1.265000000
H    -2.187000000     6.130000000    -0.897000000
H    -1.298000000     5.125000000    -1.596000000
O     3.155000000     3.451000000     0.236000000
H     2.275000000     3.321000000    -0.116000000
H     3.505000000     4.191000000    -0.261000000
O     2.924000000    -3.332000000     3.277000000
H     2.054000000    -3.077000000     3.583000000
H     2.758000000    -3.983000000     2.596000000
O    -3.179000000    -0.765000000     2.662000000
H    -3.832000000    -0.238000000     2.202000000
H    -2.370000000    -0.259000000     2.592000000
O    -4.491000000    -3.562000000     1.252000000
H    -4.112000000    -3.891000000     2.067000000
H    -5.136000000    -2.913000000     1.534000000
O     3.918000000     5.092000000    -4.107000000
H     3.945000000     5.707000000    -3.374000000
H     4.498000000     4.378000000    -3.843000000
O     3.780000000     5.855000000    -0.846000000
H     2.981000000     6.360000000    -1.000000000
H     4.394000000     6.487000000    -0.473000000
O    -0.287000000    -0.273000000     5.706000000
H    -0.489000000     0.623000000     5.977000000
H     0.227000000    -0.171000000     4.905000000
O     5.095000000    -0.568000000    -1.129000000
H     6.033000000    -0.668000000    -0.965000000
H     4.803000000     0.066000000    -0.474000000
O     4.757000000    -3.072000000    -1.864000000
H     4.743000000    -2.115000000    -1.848000000
H     3.919000000    -3.317000000    -2.256000000
O    -2.037000000    -1.873000000    -2.934000000
H    -2.171000000    -2.394000000    -2.143000000
H    -2.922000000    -1.678000000    -3.245000000
O     3.817000000    -0.800000000     2.276000000
H     3.431000000    -0.941000000     1.412000000
H     3.760000000    -1.654000000     2.706000000
O     0.433000000     5.611000000     0.690000000
H     0.352000000     5.023000000    -0.060000000
H    -0.040000000     6.401000000     0.428000000
O    -3.914000000     5.434000000    -3.171000000
H    -4.502000000     6.002000000    -2.673000000
H    -4.378000000     4.598000000    -3.227000000
O     0.762000000    -5.622000000     3.361000000
H     0.435000000    -4.749000000     3.581000000
H     0.501000000    -6.169000000     4.102000000
O     2.555000000     5.388000000     2.199000000
H     1.698000000     5.698000000     1.906000000
H     2.781000000     4.691000000     1.582000000
O     0.196000000     3.503000000    -3.682000000
H    -0.236000000     2.670000000    -3.491000000
H     0.442000000     3.847000000    -2.823000000
O     0.342000000    -7.082000000     0.551000000
H     0.129000000    -6.701000000     1.403000000
H     0.485000000    -8.011000000     0.733000000
O    -4.407000000    -0.202000000    -3.298000000
H    -4.093000000     0.668000000    -3.051000000
H    -4.619000000    -0.626000000    -2.467000000
O     5.347000000    -3.909000000     3.702000000
H     5.844000000    -3.105000000     3.851000000
H     4.450000000    -3.612000000     3.553000000
O     6.733000000     4.074000000    -0.451000000
H     7.274000000     3.659000000    -1.122000000
H     6.069000000     3.418000000    -0.238000000
O    -4.684000000     0.685000000     0.625000000
H    -4.244000000     1.050000000    -0.143000000
H    -5.592000000     0.973000000     0.541000000
O    -2.641000000     0.740000000    -5.696000000
H    -3.562000000     0.962000000    -5.828000000
H    -2.512000000     0.806000000    -4.749000000
O    -0.143000000    -3.522000000     4.636000000
H    -0.210000000    -3.244000000     5.549000000
H    -0.705000000    -2.912000000     4.158000000
O     0.318000000    -3.145000000    -4.357000000
H    -0.095000000    -2.358000000    -4.000000000
H    -0.002000000    -3.856000000    -3.803000000
O     2.885000000    -2.478000000    -4.920000000
H     2.034000000    -2.790000000    -4.613000000
H     2.927000000    -1.568000000    -4.624000000
O     0.127000000     0.067000000    -5.887000000
H    -0.821000000     0.052000000    -5.763000000
H     0.457000000     0.591000000    -5.157000000
O     1.621000000     4.345000000    -5.676000000
H     2.507000000     4.177000000    -5.354000000
H     1.057000000     4.189000000    -4.918000000
O    -2.603000000     3.956000000     1.328000000
H    -3.265000000     4.618000000     1.129000000
H    -2.040000000     3.941000000     0.554000000
O    -5.122000000     2.973000000    -3.630000000
H    -5.456000000     3.127000000    -4.514000000
H    -5.780000000     2.411000000    -3.220000000
