161
-3040.68797
C    -1.308000000     0.030000000     0.729000000
H    -2.088000000    -0.054000000     1.482000000
C    -0.260000000    -0.936000000     0.872000000
H    -0.386000000    -1.651000000     1.681000000
C     0.928000000    -0.827000000     0.081000000
C     1.990000000    -1.896000000     0.180000000
H     2.899000000    -1.506000000    -0.281000000
H     2.224000000    -2.096000000     1.228000000
H     1.696000000    -2.752000000    -0.431000000
C     1.069000000     0.224000000    -0.832000000
H     1.846000000     0.141000000    -1.588000000
C     0.001000000     1.134000000    -0.882000000
H     0.082000000     1.942000000    -1.604000000
C    -1.214000000     1.066000000    -0.122000000
C    -2.285000000     2.094000000    -0.194000000
O    -2.170000000     2.912000000    -1.097000000
O    -3.020000000     2.175000000     0.771000000
O    -6.260000000     2.844000000    -4.299000000
H    -5.733000000     3.149000000    -3.561000000
H    -6.630000000     2.012000000    -4.002000000
O    -3.127000000    -0.318000000    -3.626000000
H    -2.436000000    -0.007000000    -4.210000000
H    -2.673000000    -0.873000000    -2.992000000
O     3.619000000    -1.090000000     3.679000000
H     2.976000000    -1.799000000     3.682000000
H     3.152000000    -0.344000000     3.304000000
O    -2.507000000     7.016000000    -2.754000000
H    -3.281000000     6.615000000    -3.149000000
H    -2.387000000     7.833000000    -3.238000000
O    -1.712000000    -3.995000000     0.780000000
H    -1.524000000    -3.462000000     0.008000000
H    -0.916000000    -4.511000000     0.915000000
O    -3.034000000     2.538000000     3.355000000
H    -2.462000000     3.241000000     3.663000000
H    -2.838000000     2.462000000     2.421000000
O    -4.195000000    -1.617000000    -0.350000000
H    -3.484000000    -2.156000000    -0.697000000
H    -4.906000000    -2.236000000    -0.185000000
O    -0.163000000    -0.926000000     4.947000000
H     0.636000000    -0.534000000     4.595000000
H    -0.873000000    -0.430000000     4.539000000
O     1.639000000     3.808000000    -4.566000000
H     0.946000000     4.455000000    -4.436000000
H     2.438000000     4.328000000    -4.661000000
O     1.096000000     1.194000000     3.457000000
H     1.307000000     2.028000000     3.877000000
H     0.701000000     1.440000000     2.621000000
O     5.781000000    -2.787000000    -1.231000000
H     6.199000000    -2.481000000    -2.036000000
H     5.663000000    -1.995000000    -0.707000000
O    -0.776000000     5.390000000    -4.480000000
H    -1.309000000     5.909000000    -3.877000000
H    -1.049000000     4.486000000    -4.323000000
O    -2.892000000    -3.661000000     3.221000000
H    -2.536000000    -3.811000000     2.345000000
H    -3.420000000    -2.868000000     3.133000000
O     2.256000000    -6.311000000     3.472000000
H     2.335000000    -6.982000000     4.151000000
H     3.078000000    -5.824000000     3.520000000
O     3.724000000    -4.941000000    -1.599000000
H     4.439000000    -4.376000000    -1.304000000
H     3.620000000    -4.729000000    -2.527000000
O    -4.834000000    -1.650000000     3.319000000
H    -4.206000000    -1.018000000     3.670000000
H    -5.390000000    -1.135000000     2.734000000
O    -0.066000000     3.305000000    -6.799000000
H    -0.440000000     3.067000000    -5.951000000
H     0.856000000     3.484000000    -6.612000000
O     0.485000000    -5.580000000     1.244000000
H     0.294000000    -6.448000000     1.597000000
H     1.061000000    -5.178000000     1.894000000
O     3.252000000     1.312000000     1.235000000
H     2.890000000     0.427000000     1.207000000
H     2.581000000     1.858000000     0.826000000
O    -0.642000000     5.606000000    -1.076000000
H    -1.095000000     5.949000000    -1.846000000
H    -0.771000000     4.659000000    -1.124000000
O     2.233000000     4.057000000     0.640000000
H     2.527000000     4.813000000     1.148000000
H     2.971000000     3.855000000     0.064000000
O    -0.565000000    -1.441000000    -4.258000000
H     0.170000000    -1.955000000    -4.593000000
H    -1.311000000    -1.713000000    -4.793000000
O    -5.202000000     3.540000000     4.680000000
H    -4.777000000     4.383000000     4.836000000
H    -4.522000000     2.998000000     4.281000000
O    -5.012000000     0.565000000     1.096000000
H    -4.509000000     1.361000000     0.925000000
H    -4.551000000    -0.118000000     0.609000000
O    -4.028000000     7.484000000    -0.041000000
H    -3.645000000     7.611000000    -0.908000000
H    -3.789000000     6.589000000     0.198000000
O     5.805000000     1.781000000    -4.675000000
H     6.002000000     1.578000000    -5.589000000
H     5.365000000     0.997000000    -4.345000000
O     6.275000000    -4.119000000     1.177000000
H     6.393000000    -3.548000000     0.419000000
H     6.130000000    -4.988000000     0.803000000
O    -7.161000000     0.599000000     2.622000000
H    -7.739000000     1.304000000     2.327000000
H    -6.297000000     0.844000000     2.289000000
O     3.245000000    -2.414000000    -4.542000000
H     2.995000000    -1.683000000    -5.109000000
H     2.625000000    -3.109000000    -4.762000000
O     4.389000000    -0.130000000    -3.117000000
H     4.769000000    -0.358000000    -2.268000000
H     3.699000000    -0.779000000    -3.252000000
O     3.483000000     3.331000000    -1.727000000
H     3.291000000     3.914000000    -2.462000000
H     3.263000000     2.458000000    -2.050000000
O     5.123000000    -0.342000000    -0.388000000
H     4.533000000     0.310000000    -0.011000000
H     5.993000000     0.049000000    -0.310000000
O    -3.845000000    -4.822000000    -0.716000000
H    -3.511000000    -5.714000000    -0.624000000
H    -3.307000000    -4.303000000    -0.118000000
O    -1.693000000    -2.366000000    -1.555000000
H    -1.023000000    -1.719000000    -1.333000000
H    -1.376000000    -2.772000000    -2.362000000
O     2.082000000    -3.376000000     4.802000000
H     1.236000000    -3.641000000     4.441000000
H     2.541000000    -4.200000000     4.965000000
O    -3.773000000     4.867000000     0.540000000
H    -3.677000000     4.162000000     1.179000000
H    -3.696000000     4.433000000    -0.310000000
O    -6.283000000     0.805000000    -1.470000000
H    -5.954000000     0.015000000    -1.898000000
H    -6.384000000     0.556000000    -0.552000000
O     0.117000000     6.009000000     1.498000000
H     1.058000000     5.829000000     1.510000000
H    -0.145000000     5.852000000     0.591000000
O    -6.872000000     5.315000000    -1.976000000
H    -6.368000000     4.526000000    -1.774000000
H    -6.229000000     5.921000000    -2.344000000
O     1.091000000    -5.950000000    -1.358000000
H     1.956000000    -5.561000000    -1.484000000
H     0.888000000    -5.791000000    -0.436000000
O    -3.057000000    -0.027000000     4.604000000
H    -3.144000000     0.359000000     5.475000000
H    -2.922000000     0.721000000     4.023000000
O    -1.716000000     2.982000000    -3.874000000
H    -2.207000000     2.455000000    -4.504000000
H    -2.061000000     2.720000000    -3.021000000
O    -6.610000000     5.159000000     0.936000000
H    -6.629000000     5.178000000    -0.021000000
H    -5.697000000     4.971000000     1.154000000
O    -0.504000000    -4.372000000     4.070000000
H    -0.682000000    -5.213000000     3.650000000
H    -1.332000000    -3.895000000     4.011000000
O     1.687000000     1.246000000    -3.930000000
H     1.520000000     2.178000000    -4.072000000
H     2.285000000     1.000000000    -4.636000000
O    -1.655000000     4.922000000     3.157000000
H    -1.424000000     5.183000000     2.266000000
H    -1.963000000     5.728000000     3.571000000
O     0.248000000    -6.353000000    -3.838000000
H     0.458000000    -6.066000000    -2.949000000
H    -0.368000000    -5.696000000    -4.162000000
O    -4.896000000     3.108000000    -1.914000000
H    -3.959000000     3.039000000    -1.733000000
H    -5.281000000     2.345000000    -1.483000000
