161
-3019.10085
C    -1.221000000     0.340000000     0.702000000
H    -2.167000000     0.419000000     1.233000000
C    -0.450000000    -0.818000000     0.836000000
H    -0.824000000    -1.571000000     1.525000000
C     0.758000000    -0.972000000     0.189000000
C     1.504000000    -2.323000000     0.348000000
H     2.496000000    -2.153000000     0.773000000
H     0.935000000    -2.969000000     1.019000000
H     1.637000000    -2.811000000    -0.619000000
C     1.097000000     0.011000000    -0.735000000
H     2.054000000    -0.018000000    -1.250000000
C     0.316000000     1.166000000    -0.853000000
H     0.769000000     1.925000000    -1.486000000
C    -0.851000000     1.319000000    -0.149000000
C    -1.739000000     2.556000000    -0.376000000
O    -1.479000000     3.327000000    -1.272000000
O    -2.843000000     2.579000000     0.113000000
O     1.763000000     0.608000000     2.877000000
H     0.977000000     0.299000000     2.427000000
H     1.977000000    -0.093000000     3.493000000
O    -2.948000000    -2.750000000    -1.342000000
H    -2.133000000    -2.249000000    -1.364000000
H    -3.208000000    -2.826000000    -2.260000000
O     2.714000000    -1.657000000     4.069000000
H     2.768000000    -2.496000000     4.527000000
H     3.374000000    -1.718000000     3.379000000
O    -7.185000000     1.796000000    -1.512000000
H    -7.237000000     2.751000000    -1.542000000
H    -6.252000000     1.603000000    -1.601000000
O     2.566000000     1.168000000    -5.615000000
H     2.119000000     1.822000000    -5.077000000
H     2.627000000     0.396000000    -5.052000000
O    -3.699000000    -2.410000000     1.617000000
H    -4.054000000    -1.674000000     1.117000000
H    -3.386000000    -3.023000000     0.952000000
O    -3.691000000     4.225000000     3.697000000
H    -3.067000000     4.819000000     3.281000000
H    -3.582000000     3.397000000     3.230000000
O    -4.555000000     1.737000000    -1.853000000
H    -4.035000000     1.804000000    -2.653000000
H    -4.025000000     2.173000000    -1.185000000
O     1.988000000    -4.112000000     5.265000000
H     2.701000000    -4.685000000     4.984000000
H     1.192000000    -4.603000000     5.062000000
O     5.416000000    -0.295000000    -2.491000000
H     6.252000000    -0.336000000    -2.955000000
H     5.622000000    -0.574000000    -1.599000000
O    -0.888000000    -2.872000000     4.042000000
H     0.000000000    -3.191000000     4.203000000
H    -1.401000000    -3.214000000     4.775000000
O    -0.473000000    -5.693000000    -2.624000000
H    -1.292000000    -6.186000000    -2.681000000
H    -0.054000000    -6.018000000    -1.827000000
O     1.343000000    -5.629000000     0.379000000
H     1.507000000    -6.534000000     0.641000000
H     2.175000000    -5.180000000     0.532000000
O     4.674000000    -3.254000000    -3.479000000
H     5.413000000    -3.859000000    -3.425000000
H     4.496000000    -3.176000000    -4.417000000
O    -3.061000000     2.039000000    -6.137000000
H    -2.458000000     1.904000000    -5.405000000
H    -3.381000000     1.162000000    -6.348000000
O     3.626000000    -4.807000000     1.637000000
H     3.867000000    -4.325000000     0.845000000
H     4.255000000    -4.514000000     2.296000000
O     3.595000000     2.306000000     1.595000000
H     3.110000000     1.647000000     2.091000000
H     2.918000000     2.837000000     1.175000000
O     4.237000000     3.931000000    -3.883000000
H     4.317000000     3.099000000    -3.417000000
H     4.560000000     3.744000000    -4.764000000
O    -3.033000000     4.749000000    -2.884000000
H    -2.620000000     4.506000000    -3.713000000
H    -2.460000000     4.376000000    -2.213000000
O     1.692000000     4.040000000     0.527000000
H     1.394000000     4.409000000     1.359000000
H     1.099000000     4.412000000    -0.125000000
O    -0.141000000     2.141000000     4.473000000
H     0.564000000     1.773000000     3.939000000
H    -0.369000000     1.440000000     5.083000000
O    -2.837000000    -0.430000000     3.223000000
H    -2.153000000    -0.833000000     3.757000000
H    -3.214000000    -1.157000000     2.727000000
O    -3.168000000     7.158000000    -1.120000000
H    -2.906000000     6.498000000    -1.762000000
H    -3.566000000     6.655000000    -0.409000000
O    -6.161000000     2.277000000     3.749000000
H    -5.309000000     2.124000000     3.339000000
H    -6.668000000     1.490000000     3.548000000
O     4.703000000    -3.155000000    -0.618000000
H     4.460000000    -2.904000000    -1.509000000
H     5.651000000    -3.275000000    -0.653000000
O    -6.287000000     4.856000000     2.235000000
H    -6.321000000     4.101000000     2.822000000
H    -5.412000000     4.820000000     1.848000000
O     0.166000000    -0.187000000    -3.887000000
H     0.152000000    -1.136000000    -3.765000000
H     1.085000000     0.056000000    -3.771000000
O     6.124000000     1.702000000     0.698000000
H     5.268000000     1.756000000     1.123000000
H     6.299000000     0.763000000     0.631000000
O     5.864000000    -3.324000000     3.004000000
H     6.120000000    -4.241000000     2.910000000
H     6.581000000    -2.924000000     3.497000000
O     3.003000000    -0.605000000    -3.522000000
H     3.830000000    -0.150000000    -3.363000000
H     3.161000000    -1.501000000    -3.224000000
O     0.036000000     5.552000000    -1.308000000
H    -0.610000000     4.851000000    -1.220000000
H     0.425000000     5.413000000    -2.171000000
O     4.015000000     2.324000000    -1.338000000
H     3.838000000     2.158000000    -0.412000000
H     4.754000000     1.753000000    -1.547000000
O    -0.372000000    -3.188000000    -3.590000000
H    -0.553000000    -4.066000000    -3.255000000
H     0.442000000    -3.283000000    -4.084000000
O    -4.854000000    -1.073000000    -0.654000000
H    -4.382000000    -0.264000000    -0.853000000
H    -4.251000000    -1.771000000    -0.910000000
O    -6.428000000     4.662000000    -1.523000000
H    -5.499000000     4.880000000    -1.449000000
H    -6.685000000     4.998000000    -2.382000000
O    -1.910000000     5.832000000     2.432000000
H    -1.667000000     6.470000000     3.103000000
H    -1.075000000     5.528000000     2.076000000
O    -1.217000000    -4.587000000     1.342000000
H    -1.122000000    -4.007000000     2.098000000
H    -0.364000000    -4.559000000     0.910000000
O     4.789000000    -1.148000000     2.077000000
H     4.761000000    -1.233000000     1.124000000
H     5.310000000    -1.896000000     2.369000000
O    -1.815000000     1.623000000    -3.683000000
H    -1.171000000     0.916000000    -3.731000000
H    -1.816000000     1.884000000    -2.762000000
O    -0.078000000    -5.689000000     4.589000000
H    -0.280000000    -6.018000000     3.713000000
H    -0.595000000    -6.240000000     5.176000000
O     1.765000000    -3.564000000    -5.333000000
H     2.271000000    -4.042000000    -4.675000000
H     2.389000000    -3.397000000    -6.040000000
O    -0.922000000     8.094000000    -0.020000000
H    -0.560000000     7.260000000    -0.319000000
H    -1.838000000     8.070000000    -0.297000000
O     5.350000000    -6.221000000    -0.287000000
H     4.494000000    -5.833000000    -0.468000000
H     5.151000000    -7.044000000     0.160000000
O     0.233000000     3.013000000    -4.996000000
H     0.057000000     3.087000000    -5.933000000
H    -0.389000000     2.354000000    -4.686000000
O     1.585000000     4.920000000    -3.579000000
H     2.499000000     4.639000000    -3.616000000
H     1.112000000     4.263000000    -4.090000000
O     0.272000000     7.315000000    -4.352000000
H     0.153000000     7.966000000    -3.661000000
H     0.273000000     6.475000000    -3.892000000
O    -3.837000000     1.857000000     2.412000000
H    -3.460000000     1.983000000     1.542000000
H    -3.274000000     1.202000000     2.825000000
O    -3.928000000     5.103000000     0.768000000
H    -3.471000000     4.385000000     0.331000000
H    -3.319000000     5.399000000     1.445000000
