161
-3028.03187
C    -1.249000000    -0.536000000    -0.673000000
H    -2.055000000    -1.007000000    -1.230000000
C     0.058000000    -0.454000000    -1.263000000
H     0.154000000    -0.869000000    -2.263000000
C     1.119000000     0.110000000    -0.541000000
C     2.427000000     0.441000000    -1.131000000
H     2.434000000     1.429000000    -1.598000000
H     3.293000000     0.317000000    -0.479000000
H     2.668000000    -0.256000000    -1.937000000
C     0.899000000     0.406000000     0.798000000
H     1.655000000     0.971000000     1.338000000
C    -0.302000000     0.177000000     1.423000000
H    -0.427000000     0.628000000     2.404000000
C    -1.377000000    -0.237000000     0.677000000
C    -2.727000000    -0.383000000     1.305000000
O    -2.815000000    -0.568000000     2.543000000
O    -3.756000000    -0.170000000     0.622000000
O    -2.203000000    -0.319000000    -4.274000000
H    -2.617000000    -1.060000000    -3.831000000
H    -1.374000000    -0.667000000    -4.601000000
O     6.115000000     0.235000000     0.460000000
H     6.904000000    -0.099000000     0.887000000
H     5.952000000    -0.380000000    -0.255000000
O    -8.870000000     0.840000000     0.567000000
H    -8.800000000     0.316000000    -0.231000000
H    -7.975000000     0.888000000     0.902000000
O    -8.628000000    -1.038000000    -1.314000000
H    -9.174000000    -1.824000000    -1.300000000
H    -7.759000000    -1.345000000    -1.053000000
O    -5.121000000    -1.748000000     5.694000000
H    -4.531000000    -1.858000000     6.440000000
H    -5.857000000    -2.330000000     5.883000000
O     2.188000000     0.599000000     4.228000000
H     2.719000000     0.763000000     5.007000000
H     2.762000000     0.823000000     3.495000000
O    -1.887000000     2.368000000     3.843000000
H    -1.764000000     1.421000000     3.785000000
H    -2.658000000     2.543000000     3.302000000
O    -3.311000000     1.873000000    -5.237000000
H    -2.629000000     2.349000000    -5.712000000
H    -2.842000000     1.175000000    -4.780000000
O     4.781000000     4.713000000     3.935000000
H     4.107000000     4.039000000     3.852000000
H     5.542000000     4.350000000     3.482000000
O    -2.633000000    -0.308000000     7.529000000
H    -2.192000000    -0.637000000     6.746000000
H    -2.992000000    -1.091000000     7.947000000
O     1.125000000    -0.534000000    -5.048000000
H     0.432000000    -0.374000000    -5.689000000
H     1.902000000    -0.720000000    -5.576000000
O    -5.673000000    -1.629000000    -0.719000000
H    -5.759000000    -2.546000000    -0.458000000
H    -4.992000000    -1.280000000    -0.144000000
O    -0.917000000     3.824000000    -0.202000000
H    -1.628000000     3.797000000    -0.842000000
H    -1.260000000     3.353000000     0.558000000
O    -3.728000000    -2.314000000    -2.504000000
H    -4.547000000    -2.261000000    -2.011000000
H    -3.943000000    -2.850000000    -3.268000000
O    -3.862000000     3.058000000     2.321000000
H    -4.290000000     2.212000000     2.190000000
H    -4.512000000     3.701000000     2.040000000
O    -5.519000000    -4.112000000     0.974000000
H    -6.380000000    -4.172000000     1.386000000
H    -4.952000000    -3.748000000     1.654000000
O     0.825000000    -4.494000000    -2.251000000
H     1.735000000    -4.663000000    -2.495000000
H     0.482000000    -3.957000000    -2.966000000
O     3.774000000     4.152000000    -1.614000000
H     4.394000000     3.475000000    -1.887000000
H     3.994000000     4.910000000    -2.157000000
O    -0.947000000     4.819000000     2.771000000
H    -1.633000000     5.138000000     2.185000000
H    -1.256000000     3.959000000     3.057000000
O    -6.013000000     1.101000000     1.304000000
H    -5.286000000     0.585000000     0.956000000
H    -5.938000000     1.010000000     2.254000000
O     5.321000000     3.888000000     0.691000000
H     5.055000000     3.515000000    -0.149000000
H     5.212000000     4.832000000     0.579000000
O     5.845000000     0.513000000     4.734000000
H     5.421000000     0.600000000     3.881000000
H     6.261000000     1.362000000     4.883000000
O     1.190000000     4.060000000    -2.586000000
H     1.873000000     3.625000000    -2.077000000
H     0.418000000     3.505000000    -2.476000000
O    -3.531000000    -4.211000000    -4.671000000
H    -2.599000000    -4.184000000    -4.455000000
H    -3.581000000    -3.857000000    -5.558000000
O    -2.026000000    -3.735000000    -0.787000000
H    -1.114000000    -3.681000000    -1.075000000
H    -2.515000000    -3.247000000    -1.450000000
O    -5.041000000     0.986000000     3.750000000
H    -4.534000000     0.195000000     3.570000000
H    -5.069000000     1.040000000     4.706000000
O    -6.486000000     4.208000000     1.570000000
H    -6.609000000     3.317000000     1.242000000
H    -7.106000000     4.736000000     1.067000000
O     3.188000000    -4.106000000    -3.906000000
H     3.313000000    -3.353000000    -4.484000000
H     3.976000000    -4.124000000    -3.362000000
O     0.235000000     0.699000000     6.117000000
H     0.875000000     0.684000000     5.406000000
H    -0.342000000    -0.043000000     5.935000000
O    -0.926000000     2.180000000    -2.831000000
H    -1.327000000     1.779000000    -2.060000000
H    -1.555000000     2.025000000    -3.536000000
O    -1.638000000    -1.102000000     4.928000000
H    -1.893000000    -0.890000000     4.030000000
H    -1.557000000    -2.056000000     4.935000000
O     4.568000000    -2.600000000     1.439000000
H     4.230000000    -3.454000000     1.168000000
H     5.496000000    -2.625000000     1.205000000
O    -0.157000000    -2.792000000    -3.956000000
H    -0.357000000    -3.278000000    -4.756000000
H     0.513000000    -2.162000000    -4.220000000
O    -4.352000000    -2.686000000     3.314000000
H    -4.457000000    -2.269000000     4.169000000
H    -3.746000000    -2.115000000     2.842000000
O    -7.159000000    -1.974000000     3.598000000
H    -6.258000000    -1.668000000     3.704000000
H    -7.399000000    -2.315000000     4.460000000
O     1.399000000     2.289000000    -4.887000000
H     1.193000000     1.390000000    -4.632000000
H     1.215000000     2.808000000    -4.104000000
O    -1.723000000    -4.600000000     2.194000000
H    -1.395000000    -4.166000000     1.406000000
H    -2.569000000    -4.964000000     1.933000000
O     6.345000000     2.580000000    -1.759000000
H     6.282000000     2.880000000    -2.666000000
H     6.230000000     1.632000000    -1.812000000
O     1.975000000    -3.496000000     0.175000000
H     2.002000000    -2.539000000     0.195000000
H     1.742000000    -3.710000000    -0.728000000
O     1.970000000     4.162000000     0.468000000
H     2.449000000     4.234000000    -0.357000000
H     1.055000000     4.059000000     0.206000000
O    -0.168000000     3.581000000     5.672000000
H    -0.388000000     3.577000000     4.741000000
H    -0.147000000     2.656000000     5.917000000
O     6.397000000    -0.223000000    -2.405000000
H     6.472000000    -0.152000000    -3.356000000
H     6.676000000    -1.117000000    -2.209000000
O     2.586000000     3.211000000     3.195000000
H     1.669000000     2.976000000     3.337000000
H     2.667000000     3.300000000     2.246000000
O    -6.841000000     2.784000000    -1.414000000
H    -6.073000000     2.356000000    -1.793000000
H    -7.090000000     2.223000000    -0.680000000
O     4.566000000     1.385000000     2.310000000
H     4.657000000     2.245000000     1.899000000
H     4.972000000     0.779000000     1.690000000
O    -4.584000000     0.972000000    -1.518000000
H    -5.347000000     0.411000000    -1.654000000
H    -4.214000000     0.676000000    -0.687000000
O    -1.399000000    -3.915000000     4.598000000
H    -1.671000000    -4.104000000     3.700000000
H    -2.077000000    -4.317000000     5.142000000
O     2.465000000    -2.102000000     3.868000000
H     2.752000000    -2.217000000     2.962000000
H     2.190000000    -1.186000000     3.918000000
