161
-3049.63486
C    -1.247000000     0.319000000    -0.621000000
H    -2.114000000     0.700000000    -1.155000000
C    -0.112000000     1.079000000    -0.709000000
H    -0.046000000     1.947000000    -1.360000000
C     1.025000000     0.655000000    -0.034000000
C     2.288000000     1.457000000    -0.157000000
H     3.141000000     1.034000000     0.377000000
H     2.622000000     1.574000000    -1.190000000
H     2.113000000     2.475000000     0.196000000
C     1.032000000    -0.499000000     0.745000000
H     1.869000000    -0.754000000     1.390000000
C    -0.139000000    -1.243000000     0.784000000
H    -0.018000000    -2.226000000     1.231000000
C    -1.358000000    -0.820000000     0.164000000
C    -2.677000000    -1.673000000     0.172000000
O    -2.680000000    -2.878000000     0.372000000
O    -3.707000000    -1.143000000    -0.200000000
O    -7.305000000     0.929000000    -2.583000000
H    -7.853000000     0.151000000    -2.689000000
H    -6.417000000     0.585000000    -2.482000000
O     4.517000000    -1.581000000     1.112000000
H     5.041000000    -1.901000000     0.377000000
H     4.875000000    -0.714000000     1.302000000
O     2.868000000     4.078000000     2.390000000
H     2.289000000     4.216000000     3.140000000
H     2.466000000     4.580000000     1.681000000
O    -5.233000000    -1.382000000    -4.434000000
H    -4.953000000    -0.988000000    -5.261000000
H    -5.043000000    -0.714000000    -3.775000000
O    -3.998000000    -0.852000000     3.041000000
H    -4.354000000    -0.137000000     2.512000000
H    -3.581000000    -0.416000000     3.784000000
O     0.519000000    -3.518000000     3.667000000
H    -0.422000000    -3.562000000     3.494000000
H     0.640000000    -2.684000000     4.120000000
O     1.917000000     2.773000000    -3.487000000
H     2.718000000     2.298000000    -3.264000000
H     1.351000000     2.113000000    -3.888000000
O     2.426000000     4.929000000    -5.205000000
H     2.029000000     4.112000000    -4.903000000
H     1.725000000     5.376000000    -5.679000000
O    -4.029000000     2.979000000    -1.690000000
H    -3.315000000     3.501000000    -1.324000000
H    -4.825000000     3.419000000    -1.391000000
O    -2.914000000     2.475000000    -4.636000000
H    -3.746000000     2.761000000    -5.013000000
H    -2.981000000     2.704000000    -3.708000000
O    -1.670000000    -5.239000000    -0.127000000
H    -2.056000000    -4.374000000     0.005000000
H    -1.018000000    -5.108000000    -0.815000000
O     3.816000000     0.652000000    -3.554000000
H     4.053000000    -0.271000000    -3.643000000
H     4.387000000     1.107000000    -4.173000000
O     0.828000000    -1.132000000     4.877000000
H     1.730000000    -0.921000000     5.117000000
H     0.499000000    -0.337000000     4.458000000
O     1.089000000     6.146000000     2.086000000
H     0.911000000     5.956000000     3.007000000
H     0.233000000     6.364000000     1.717000000
O    -4.852000000    -6.134000000     0.477000000
H    -4.204000000    -6.773000000     0.774000000
H    -5.492000000    -6.094000000     1.187000000
O     5.068000000     2.360000000     3.964000000
H     4.982000000     1.578000000     3.420000000
H     4.662000000     3.057000000     3.449000000
O     3.892000000     4.180000000    -1.950000000
H     3.187000000     4.091000000    -2.591000000
H     3.655000000     4.954000000    -1.438000000
O    -3.077000000    -5.807000000     3.886000000
H    -3.408000000    -5.035000000     3.426000000
H    -2.853000000    -5.487000000     4.760000000
O    -6.012000000    -2.157000000    -1.019000000
H    -5.597000000    -2.734000000    -1.661000000
H    -5.283000000    -1.789000000    -0.521000000
O    -2.718000000    -7.662000000     0.406000000
H    -1.980000000    -8.262000000     0.300000000
H    -2.394000000    -6.823000000     0.080000000
O     1.931000000    -1.872000000    -1.865000000
H     1.356000000    -1.234000000    -1.442000000
H     2.278000000    -2.396000000    -1.143000000
O    -5.563000000     0.822000000     1.214000000
H    -6.173000000     1.244000000     0.610000000
H    -5.298000000     0.019000000     0.766000000
O    -4.068000000    -4.170000000    -4.428000000
H    -3.949000000    -4.467000000    -3.526000000
H    -4.352000000    -3.259000000    -4.345000000
O     3.221000000    -3.873000000    -0.191000000
H     3.632000000    -3.215000000     0.369000000
H     2.719000000    -4.421000000     0.412000000
O    -0.441000000     3.353000000    -5.362000000
H    -0.441000000     3.748000000    -6.234000000
H    -1.357000000     3.129000000    -5.201000000
O    -1.966000000     4.724000000    -1.421000000
H    -2.260000000     5.617000000    -1.244000000
H    -1.256000000     4.826000000    -2.055000000
O     2.496000000    -2.326000000    -4.326000000
H     2.204000000    -2.231000000    -3.419000000
H     3.452000000    -2.325000000    -4.270000000
O     6.490000000     4.432000000    -2.999000000
H     6.923000000     3.906000000    -2.325000000
H     5.614000000     4.595000000    -2.649000000
O     4.802000000     3.556000000     0.685000000
H     4.387000000     3.581000000    -0.177000000
H     4.089000000     3.730000000     1.300000000
O    -1.749000000     0.161000000    -5.570000000
H    -1.851000000     0.980000000    -5.086000000
H    -2.591000000     0.034000000    -6.008000000
O     2.752000000     6.419000000    -0.116000000
H     2.943000000     7.354000000    -0.185000000
H     1.951000000     6.375000000     0.405000000
O    -7.771000000    -2.325000000     1.357000000
H    -8.018000000    -2.678000000     2.212000000
H    -6.879000000    -2.643000000     1.216000000
O    -6.307000000    -5.769000000     2.625000000
H    -6.292000000    -5.697000000     3.579000000
H    -6.307000000    -4.863000000     2.316000000
O     4.641000000     2.989000000    -5.114000000
H     4.445000000     2.727000000    -6.014000000
H     4.055000000     3.728000000    -4.947000000
O     3.432000000    -1.479000000     3.789000000
H     2.666000000    -2.012000000     3.574000000
H     4.068000000    -1.688000000     3.105000000
O    -0.513000000     1.084000000     3.627000000
H    -1.428000000     1.287000000     3.824000000
H    -0.401000000     1.347000000     2.713000000
O    -2.715000000     4.711000000     2.614000000
H    -3.635000000     4.766000000     2.359000000
H    -2.349000000     4.033000000     2.046000000
O    -1.506000000    -2.220000000    -4.467000000
H    -2.405000000    -2.541000000    -4.532000000
H    -1.517000000    -1.382000000    -4.930000000
O     5.847000000     0.895000000     1.320000000
H     6.666000000     0.846000000     0.826000000
H     5.432000000     1.702000000     1.016000000
O    -4.508000000     0.463000000    -2.433000000
H    -4.352000000     1.399000000    -2.306000000
H    -4.207000000     0.058000000    -1.619000000
O    -2.158000000    -2.988000000     3.129000000
H    -2.732000000    -2.350000000     3.554000000
H    -2.193000000    -2.759000000     2.200000000
O     0.320000000     5.104000000    -3.040000000
H     0.856000000     4.313000000    -3.099000000
H     0.097000000     5.311000000    -3.947000000
O    -4.920000000    -3.176000000     2.079000000
H    -4.309000000    -3.384000000     1.372000000
H    -4.582000000    -2.365000000     2.457000000
O    -1.737000000     3.076000000     0.789000000
H    -1.745000000     3.841000000     0.215000000
H    -1.639000000     2.332000000     0.196000000
O    -0.746000000    -6.461000000     2.402000000
H    -0.927000000    -5.862000000     1.677000000
H    -1.398000000    -6.238000000     3.066000000
O    -4.187000000    -4.324000000    -1.636000000
H    -3.714000000    -3.656000000    -1.139000000
H    -4.244000000    -5.071000000    -1.040000000
O     2.609000000    -4.906000000     2.285000000
H     3.347000000    -4.904000000     2.894000000
H     1.842000000    -4.760000000     2.837000000
O     0.099000000    -3.711000000    -2.625000000
H     0.772000000    -3.056000000    -2.439000000
H    -0.597000000    -3.222000000    -3.063000000
