161
-3074.69996
C    -0.915000000     0.686000000    -0.908000000
H    -1.583000000     1.245000000    -1.559000000
C     0.067000000     1.239000000    -0.116000000
H    -0.021000000     2.321000000    -0.059000000
C     0.900000000     0.525000000     0.711000000
C     1.909000000     1.254000000     1.585000000
H     2.750000000     0.590000000     1.794000000
H     2.316000000     2.080000000     0.998000000
H     1.423000000     1.615000000     2.494000000
C     0.760000000    -0.895000000     0.672000000
H     1.389000000    -1.371000000     1.419000000
C    -0.210000000    -1.511000000    -0.100000000
H    -0.374000000    -2.581000000    -0.199000000
C    -1.090000000    -0.707000000    -0.877000000
C    -2.090000000    -1.369000000    -1.751000000
O    -2.701000000    -2.384000000    -1.398000000
O    -2.530000000    -0.736000000    -2.709000000
O     4.165000000    -5.502000000     1.896000000
H     4.403000000    -5.633000000     0.978000000
H     3.435000000    -4.883000000     1.868000000
O     4.527000000     3.504000000     5.358000000
H     4.102000000     2.656000000     5.229000000
H     5.411000000     3.286000000     5.653000000
O     0.678000000    -6.733000000    -0.962000000
H     0.075000000    -6.708000000    -1.706000000
H     1.120000000    -7.579000000    -1.041000000
O    -1.774000000    -0.955000000    -7.193000000
H    -1.409000000    -1.701000000    -6.717000000
H    -1.414000000    -0.187000000    -6.749000000
O     5.205000000     4.237000000     2.656000000
H     4.933000000     4.182000000     3.572000000
H     4.387000000     4.195000000     2.161000000
O    -4.318000000    -1.003000000    -6.366000000
H    -3.374000000    -0.863000000    -6.449000000
H    -4.529000000    -0.692000000    -5.486000000
O     7.340000000     2.120000000     2.873000000
H     6.614000000     1.614000000     2.510000000
H     7.248000000     2.988000000     2.479000000
O    -2.736000000    -3.569000000     3.696000000
H    -3.015000000    -3.187000000     2.864000000
H    -2.211000000    -2.884000000     4.110000000
O     1.957000000     3.261000000    -3.020000000
H     2.777000000     3.177000000    -2.533000000
H     1.919000000     2.473000000    -3.562000000
O     4.655000000    -0.496000000    -0.956000000
H     3.863000000    -0.054000000    -1.264000000
H     5.204000000    -0.574000000    -1.736000000
O    -2.477000000     2.545000000    -4.415000000
H    -2.648000000     3.434000000    -4.105000000
H    -3.235000000     2.040000000    -4.120000000
O     2.915000000    -5.258000000    -0.813000000
H     2.798000000    -4.523000000    -1.415000000
H     2.057000000    -5.680000000    -0.781000000
O    -0.850000000     1.140000000    -5.981000000
H    -1.565000000     1.419000000    -5.409000000
H    -0.553000000     1.946000000    -6.405000000
O    -5.266000000     2.911000000    -1.344000000
H    -5.747000000     3.494000000    -1.932000000
H    -4.989000000     2.184000000    -1.901000000
O    -2.078000000    -4.262000000    -3.074000000
H    -2.248000000    -4.859000000    -2.345000000
H    -2.250000000    -3.391000000    -2.715000000
O     5.791000000     1.731000000     0.292000000
H     5.384000000     0.881000000     0.127000000
H     6.620000000     1.696000000    -0.186000000
O    -5.016000000    -3.982000000    -3.674000000
H    -4.186000000    -3.573000000    -3.430000000
H    -4.768000000    -4.686000000    -4.273000000
O     1.854000000    -3.976000000     1.439000000
H     1.350000000    -4.611000000     1.947000000
H     2.194000000    -4.477000000     0.698000000
O    -0.567000000    -6.444000000    -3.407000000
H    -1.307000000    -5.838000000    -3.349000000
H     0.187000000    -5.884000000    -3.592000000
O     2.444000000    -0.067000000    -2.482000000
H     2.372000000     0.363000000    -3.334000000
H     1.596000000     0.085000000    -2.065000000
O    -3.427000000     3.547000000     0.777000000
H    -3.948000000     3.439000000    -0.019000000
H    -2.955000000     4.369000000     0.646000000
O     1.267000000     2.652000000     5.800000000
H     0.457000000     2.342000000     6.205000000
H     1.011000000     3.446000000     5.331000000
O     5.364000000    -2.428000000     0.751000000
H     5.132000000    -1.720000000     0.150000000
H     4.957000000    -2.180000000     1.581000000
O     1.857000000     1.315000000    -5.023000000
H     2.124000000     1.883000000    -5.746000000
H     0.979000000     1.019000000    -5.263000000
O    -1.509000000    -1.219000000     4.608000000
H    -1.735000000    -0.935000000     3.723000000
H    -2.026000000    -0.653000000     5.181000000
O    -0.307000000    -5.098000000     2.914000000
H    -0.955000000    -4.399000000     3.001000000
H    -0.263000000    -5.493000000     3.784000000
O    -5.972000000    -3.901000000     0.480000000
H    -5.161000000    -4.337000000     0.739000000
H    -5.684000000    -3.103000000     0.037000000
O    -0.056000000     5.110000000     3.703000000
H    -0.333000000     5.981000000     3.417000000
H    -0.664000000     4.511000000     3.270000000
O     0.593000000     5.165000000    -1.583000000
H     1.335000000     5.157000000    -0.977000000
H     0.695000000     4.365000000    -2.097000000
O    -2.657000000    -5.891000000    -0.826000000
H    -3.272000000    -6.481000000    -1.262000000
H    -2.483000000    -6.307000000     0.018000000
O     4.395000000     3.585000000    -1.008000000
H     4.055000000     4.301000000    -0.471000000
H     4.769000000     2.970000000    -0.377000000
O     3.333000000     5.700000000     0.540000000
H     3.213000000     5.931000000     1.461000000
H     3.122000000     6.502000000     0.062000000
O    -7.582000000    -0.080000000    -0.374000000
H    -6.697000000    -0.355000000    -0.613000000
H    -7.918000000    -0.796000000     0.166000000
O    -1.737000000     3.146000000     2.935000000
H    -2.297000000     2.997000000     2.174000000
H    -1.623000000     2.278000000     3.322000000
O    -3.273000000    -3.212000000     0.987000000
H    -2.978000000    -2.992000000     0.104000000
H    -3.442000000    -4.153000000     0.956000000
O    -4.938000000    -0.638000000     1.679000000
H    -5.036000000    -1.089000000     2.518000000
H    -5.218000000     0.260000000     1.856000000
O     3.339000000     1.045000000     5.072000000
H     2.615000000     1.574000000     5.408000000
H     2.940000000     0.202000000     4.856000000
O    -2.176000000    -0.111000000     2.162000000
H    -1.595000000     0.208000000     1.472000000
H    -2.703000000    -0.788000000     1.738000000
O    -1.345000000    -6.942000000     1.302000000
H    -0.748000000    -7.376000000     0.692000000
H    -0.860000000    -6.176000000     1.608000000
O     2.654000000    -3.058000000    -2.816000000
H     2.454000000    -2.139000000    -2.644000000
H     3.495000000    -3.039000000    -3.274000000
O    -4.800000000     0.646000000    -2.903000000
H    -5.423000000    -0.031000000    -3.168000000
H    -3.941000000     0.245000000    -3.034000000
O     0.188000000    -3.152000000     4.980000000
H    -0.423000000    -2.416000000     4.946000000
H     0.914000000    -2.887000000     4.414000000
O    -5.314000000    -1.731000000    -0.692000000
H    -4.452000000    -1.965000000    -1.038000000
H    -5.125000000    -1.256000000     0.118000000
O    -1.572000000     5.666000000     0.638000000
H    -1.676000000     6.479000000     0.144000000
H    -0.876000000     5.195000000     0.180000000
O     2.654000000    -2.328000000     3.562000000
H     2.486000000    -2.905000000     2.816000000
H     3.575000000    -2.084000000     3.472000000
O    -6.266000000    -1.632000000    -4.261000000
H    -6.703000000    -1.717000000    -3.414000000
H    -5.766000000    -2.443000000    -4.355000000
O    -0.976000000    -2.405000000    -4.802000000
H    -1.321000000    -1.602000000    -4.409000000
H    -1.265000000    -3.102000000    -4.214000000
O     5.437000000    -1.478000000     3.805000000
H     5.519000000    -2.244000000     4.373000000
H     5.589000000    -0.732000000     4.386000000
