161
-3055.50180
C     1.221000000     0.539000000     0.638000000
H     2.020000000     1.103000000     1.112000000
C     0.001000000     1.179000000     0.489000000
H    -0.131000000     2.134000000     0.990000000
C    -1.094000000     0.612000000    -0.125000000
C    -2.393000000     1.322000000    -0.202000000
H    -3.051000000     0.887000000     0.554000000
H    -2.276000000     2.362000000     0.108000000
H    -2.892000000     1.112000000    -1.150000000
C    -0.896000000    -0.682000000    -0.678000000
H    -1.713000000    -1.208000000    -1.164000000
C     0.297000000    -1.424000000    -0.464000000
H     0.309000000    -2.426000000    -0.885000000
C     1.392000000    -0.819000000     0.218000000
C     2.723000000    -1.424000000     0.219000000
O     2.792000000    -2.616000000     0.326000000
O     3.684000000    -0.652000000     0.018000000
O    -4.770000000    -4.502000000    -0.967000000
H    -4.316000000    -3.847000000    -1.497000000
H    -5.699000000    -4.343000000    -1.135000000
O     4.900000000     1.445000000     0.589000000
H     5.155000000     1.579000000    -0.323000000
H     4.340000000     0.669000000     0.570000000
O    -4.627000000    -1.538000000     0.662000000
H    -4.852000000    -1.239000000     1.544000000
H    -4.773000000    -2.483000000     0.685000000
O     2.244000000    -2.188000000    -3.363000000
H     2.409000000    -1.250000000    -3.268000000
H     2.713000000    -2.434000000    -4.161000000
O    -0.216000000    -0.230000000     4.474000000
H    -0.827000000     0.502000000     4.558000000
H    -0.230000000    -0.449000000     3.543000000
O    -7.115000000     0.481000000    -3.653000000
H    -6.524000000     0.056000000    -3.032000000
H    -6.975000000     1.418000000    -3.514000000
O     4.689000000    -4.179000000    -4.388000000
H     3.910000000    -4.534000000    -4.817000000
H     4.447000000    -4.120000000    -3.464000000
O     6.126000000    -5.848000000     1.059000000
H     5.655000000    -5.020000000     1.156000000
H     6.409000000    -5.857000000     0.145000000
O    -2.504000000     5.786000000    -1.194000000
H    -1.961000000     6.574000000    -1.203000000
H    -2.026000000     5.159000000    -1.736000000
O     5.630000000    -3.967000000     4.443000000
H     5.234000000    -4.177000000     3.597000000
H     4.932000000    -4.123000000     5.079000000
O    -0.505000000    -3.302000000    -3.516000000
H     0.336000000    -2.847000000    -3.464000000
H    -0.628000000    -3.474000000    -4.449000000
O     0.638000000    -3.470000000     2.257000000
H     0.754000000    -4.023000000     3.029000000
H     1.517000000    -3.147000000     2.058000000
O    -1.476000000     4.393000000     1.520000000
H    -1.562000000     5.331000000     1.692000000
H    -1.629000000     4.306000000     0.579000000
O     5.450000000    -2.287000000    -2.284000000
H     4.970000000    -1.971000000    -1.518000000
H     6.320000000    -2.503000000    -1.949000000
O    -3.901000000    -1.000000000     3.687000000
H    -4.644000000    -1.592000000     3.804000000
H    -3.203000000    -1.557000000     3.341000000
O    -2.517000000    -4.632000000     2.954000000
H    -2.221000000    -4.690000000     2.046000000
H    -2.892000000    -3.755000000     3.029000000
O    -2.619000000    -0.885000000    -6.153000000
H    -1.859000000    -0.878000000    -6.735000000
H    -2.404000000    -0.250000000    -5.470000000
O    -2.071000000    -5.624000000    -3.175000000
H    -1.565000000    -6.029000000    -2.471000000
H    -1.664000000    -4.766000000    -3.300000000
O     0.570000000    -5.001000000    -0.583000000
H     1.404000000    -4.542000000    -0.484000000
H    -0.057000000    -4.465000000    -0.096000000
O     3.253000000    -4.278000000    -1.722000000
H     3.360000000    -4.030000000    -0.804000000
H     2.824000000    -3.524000000    -2.125000000
O     3.503000000     2.607000000     4.209000000
H     2.979000000     1.893000000     4.571000000
H     3.330000000     3.348000000     4.790000000
O    -3.977000000     1.531000000     4.158000000
H    -3.944000000     0.590000000     3.988000000
H    -3.183000000     1.712000000     4.661000000
O    -1.683000000    -1.903000000     2.168000000
H    -0.847000000    -2.370000000     2.175000000
H    -1.701000000    -1.458000000     1.321000000
O    -1.519000000     1.973000000     5.389000000
H    -1.041000000     2.699000000     4.987000000
H    -1.150000000     1.902000000     6.269000000
O    -4.128000000     1.985000000    -3.819000000
H    -4.797000000     2.380000000    -3.260000000
H    -3.850000000     1.203000000    -3.343000000
O     0.327000000    -6.629000000     1.891000000
H    -0.627000000    -6.573000000     1.937000000
H     0.576000000    -5.959000000     1.255000000
O     6.928000000     1.571000000     2.339000000
H     6.144000000     1.470000000     1.800000000
H     7.509000000     2.124000000     1.816000000
O     1.679000000     2.307000000    -2.069000000
H     0.988000000     1.873000000    -1.567000000
H     2.368000000     1.647000000    -2.149000000
O     3.428000000     0.407000000    -2.466000000
H     3.430000000    -0.130000000    -1.674000000
H     4.351000000     0.486000000    -2.704000000
O     5.777000000     1.199000000    -3.395000000
H     5.848000000     1.982000000    -2.851000000
H     6.516000000     1.259000000    -4.001000000
O     2.250000000     0.414000000     5.498000000
H     2.831000000    -0.343000000     5.575000000
H     1.442000000     0.060000000     5.127000000
O    -1.613000000     1.325000000    -4.854000000
H    -0.828000000     1.816000000    -5.095000000
H    -2.259000000     1.997000000    -4.636000000
O     0.013000000    -7.130000000    -1.840000000
H     0.060000000    -6.390000000    -1.235000000
H    -0.859000000    -7.500000000    -1.698000000
O    -6.391000000     2.746000000    -2.330000000
H    -6.252000000     3.314000000    -1.572000000
H    -7.144000000     3.128000000    -2.781000000
O    -4.770000000    -0.411000000    -2.374000000
H    -4.794000000    -0.715000000    -1.467000000
H    -4.270000000    -1.082000000    -2.839000000
O    -2.385000000    -5.162000000     0.111000000
H    -3.133000000    -4.887000000    -0.419000000
H    -2.414000000    -6.119000000     0.088000000
O     6.169000000    -1.716000000     0.726000000
H     6.750000000    -1.416000000     0.027000000
H     5.346000000    -1.254000000     0.569000000
O    -3.174000000     4.402000000    -4.709000000
H    -3.787000000     4.939000000    -5.211000000
H    -3.678000000     3.625000000    -4.469000000
O    -0.729000000     4.344000000     4.218000000
H    -1.286000000     4.370000000     3.440000000
H     0.077000000     4.786000000     3.951000000
O    -6.278000000     1.074000000     0.269000000
H    -6.885000000     1.400000000    -0.396000000
H    -5.461000000     0.921000000    -0.206000000
O    -4.497000000     3.091000000     1.680000000
H    -3.679000000     2.637000000     1.474000000
H    -4.570000000     3.031000000     2.633000000
O    -3.360000000    -2.762000000    -2.739000000
H    -3.596000000    -2.922000000    -3.653000000
H    -2.420000000    -2.581000000    -2.763000000
O     2.424000000     4.953000000    -0.240000000
H     2.466000000     4.307000000    -0.944000000
H     2.821000000     4.515000000     0.512000000
O     3.635000000     3.790000000     1.854000000
H     3.282000000     3.455000000     2.678000000
H     4.410000000     3.252000000     1.689000000
O     4.588000000    -3.575000000     1.877000000
H     3.938000000    -3.245000000     1.256000000
H     5.368000000    -3.045000000     1.710000000
O    -5.898000000     4.927000000    -0.108000000
H    -6.284000000     5.613000000     0.437000000
H    -5.652000000     4.240000000     0.511000000
O    -0.687000000     4.495000000    -3.060000000
H    -0.053000000     3.791000000    -3.197000000
H    -1.219000000     4.496000000    -3.856000000
O    -6.593000000     1.305000000     2.889000000
H    -5.694000000     1.210000000     3.203000000
H    -6.547000000     1.081000000     1.959000000
