161
-3063.35194
C     1.473000000    -0.160000000     0.019000000
H     2.557000000    -0.097000000     0.062000000
C     0.731000000     0.974000000     0.331000000
H     1.304000000     1.886000000     0.477000000
C    -0.645000000     1.026000000     0.227000000
C    -1.456000000     2.289000000     0.483000000
H    -2.460000000     2.150000000     0.890000000
H    -1.009000000     2.932000000     1.244000000
H    -1.558000000     2.914000000    -0.407000000
C    -1.290000000    -0.154000000    -0.068000000
H    -2.372000000    -0.185000000    -0.166000000
C    -0.571000000    -1.302000000    -0.275000000
H    -1.155000000    -2.173000000    -0.561000000
C     0.842000000    -1.371000000    -0.232000000
C     1.618000000    -2.597000000    -0.599000000
O     1.313000000    -3.712000000    -0.329000000
O     2.674000000    -2.428000000    -1.092000000
O     1.732000000    -1.284000000    -3.711000000
H     0.997000000    -1.862000000    -3.913000000
H     1.987000000    -1.524000000    -2.820000000
O     5.709000000    -0.844000000    -3.921000000
H     6.341000000    -0.799000000    -3.204000000
H     5.157000000    -1.596000000    -3.708000000
O    -3.976000000    -2.199000000     0.083000000
H    -3.333000000    -2.905000000     0.147000000
H    -4.164000000    -2.129000000    -0.853000000
O     0.040000000    -3.387000000    -3.650000000
H    -0.812000000    -3.012000000    -3.875000000
H    -0.122000000    -3.885000000    -2.848000000
O    -0.146000000    -1.387000000     3.839000000
H     0.089000000    -0.631000000     4.377000000
H     0.241000000    -1.201000000     2.984000000
O    -1.430000000     5.603000000     1.944000000
H    -1.047000000     5.011000000     2.592000000
H    -0.754000000     5.693000000     1.272000000
O     1.813000000    -4.656000000    -5.506000000
H     1.235000000    -5.227000000    -6.013000000
H     1.250000000    -4.293000000    -4.822000000
O     6.295000000    -4.057000000    -0.583000000
H     6.239000000    -3.243000000    -0.082000000
H     5.782000000    -3.888000000    -1.373000000
O     4.836000000    -5.435000000     1.338000000
H     4.177000000    -5.967000000     0.892000000
H     5.236000000    -4.914000000     0.641000000
O    -3.575000000     5.163000000     0.253000000
H    -2.835000000     5.386000000     0.819000000
H    -3.331000000     5.508000000    -0.606000000
O     5.216000000     1.739000000    -2.152000000
H     6.144000000     1.826000000    -2.369000000
H     4.760000000     1.924000000    -2.974000000
O     0.197000000    -5.093000000     1.523000000
H     0.770000000    -4.641000000     0.904000000
H     0.759000000    -5.285000000     2.274000000
O    -4.156000000     3.412000000     2.438000000
H    -3.719000000     3.856000000     3.165000000
H    -4.142000000     4.050000000     1.725000000
O     4.505000000    -3.032000000    -2.819000000
H     3.885000000    -2.749000000    -2.147000000
H     4.168000000    -3.879000000    -3.113000000
O    -3.202000000    -0.755000000     2.867000000
H    -3.161000000    -1.514000000     2.285000000
H    -2.576000000    -0.953000000     3.563000000
O    -0.580000000     7.660000000    -1.274000000
H    -1.363000000     7.817000000    -0.746000000
H    -0.441000000     6.714000000    -1.220000000
O     0.593000000     3.612000000     3.087000000
H     0.644000000     2.657000000     3.128000000
H     1.193000000     3.854000000     2.382000000
O    -0.126000000    -7.266000000    -3.573000000
H    -0.139000000    -6.568000000    -2.919000000
H     0.739000000    -7.666000000    -3.480000000
O    -0.606000000    -4.952000000    -1.639000000
H     0.163000000    -4.647000000    -1.158000000
H    -1.334000000    -4.827000000    -1.031000000
O     3.728000000     1.666000000     2.142000000
H     2.983000000     1.131000000     2.412000000
H     4.397000000     1.499000000     2.806000000
O    -1.903000000     1.864000000     4.436000000
H    -2.597000000     2.459000000     4.720000000
H    -2.002000000     1.816000000     3.485000000
O    -7.163000000     3.847000000     3.016000000
H    -7.892000000     3.532000000     2.480000000
H    -6.389000000     3.710000000     2.471000000
O    -2.252000000    -4.487000000     0.423000000
H    -2.844000000    -5.221000000     0.585000000
H    -1.463000000    -4.701000000     0.921000000
O     4.731000000     5.097000000     1.676000000
H     5.052000000     4.236000000     1.945000000
H     5.334000000     5.372000000     0.985000000
O    -2.844000000    -0.987000000    -3.551000000
H    -3.030000000    -1.919000000    -3.432000000
H    -3.511000000    -0.542000000    -3.027000000
O     7.239000000    -1.017000000    -1.249000000
H     6.628000000    -0.281000000    -1.287000000
H     7.970000000    -0.694000000    -0.722000000
O     5.654000000     1.267000000     0.454000000
H     5.462000000     1.251000000    -0.484000000
H     4.802000000     1.397000000     0.870000000
O     3.316000000    -8.621000000     0.521000000
H     4.146000000    -8.664000000     0.045000000
H     2.780000000    -8.012000000     0.013000000
O     5.796000000    -1.042000000     2.363000000
H     5.218000000    -1.728000000     2.029000000
H     5.799000000    -0.376000000     1.675000000
O    -6.216000000     5.250000000    -0.440000000
H    -6.734000000     5.387000000     0.353000000
H    -5.307000000     5.287000000    -0.142000000
O    -0.170000000     3.218000000    -2.666000000
H    -0.628000000     2.379000000    -2.694000000
H     0.231000000     3.302000000    -3.531000000
O    -0.694000000     0.599000000    -2.971000000
H    -1.427000000     0.265000000    -3.487000000
H    -0.793000000     0.182000000    -2.115000000
O     3.737000000    -5.483000000    -3.615000000
H     3.129000000    -5.222000000    -4.307000000
H     4.321000000    -6.115000000    -4.035000000
O     2.357000000     1.260000000    -3.470000000
H     1.470000000     1.450000000    -3.162000000
H     2.454000000     0.315000000    -3.352000000
O     0.693000000     0.989000000     4.799000000
H    -0.200000000     1.332000000     4.826000000
H     1.190000000     1.570000000     5.374000000
O    -3.100000000     2.503000000    -3.785000000
H    -2.375000000     3.105000000    -3.623000000
H    -3.616000000     2.928000000    -4.470000000
O    -3.443000000    -3.564000000    -3.690000000
H    -4.328000000    -3.927000000    -3.653000000
H    -3.166000000    -3.700000000    -4.596000000
O     2.760000000     3.783000000    -1.770000000
H     3.368000000     3.054000000    -1.647000000
H     1.975000000     3.380000000    -2.142000000
O     4.329000000    -2.790000000     1.102000000
H     4.151000000    -3.668000000     1.440000000
H     3.748000000    -2.701000000     0.346000000
O     0.731000000     3.809000000     5.743000000
H     0.598000000     4.741000000     5.913000000
H     0.700000000     3.733000000     4.789000000
O    -4.488000000     0.714000000    -2.231000000
H    -4.009000000     1.409000000    -2.683000000
H    -5.182000000     0.466000000    -2.841000000
O    -6.812000000     1.359000000    -0.869000000
H    -7.225000000     0.508000000    -1.017000000
H    -5.874000000     1.188000000    -0.951000000
O    -0.329000000     5.089000000    -0.570000000
H    -0.551000000     4.330000000    -1.109000000
H     0.469000000     4.830000000    -0.109000000
O     2.136000000     4.654000000     0.609000000
H     2.597000000     4.186000000    -0.087000000
H     2.790000000     5.254000000     0.969000000
O     3.047000000    -5.723000000    -0.786000000
H     3.175000000    -5.586000000    -1.724000000
H     2.491000000    -4.994000000    -0.511000000
O    -3.241000000     5.122000000     4.441000000
H    -2.511000000     5.667000000     4.734000000
H    -3.699000000     4.881000000     5.247000000
O    -3.331000000     6.166000000    -2.347000000
H    -2.542000000     6.395000000    -2.838000000
H    -3.691000000     5.410000000    -2.809000000
O    -5.131000000     0.925000000     2.835000000
H    -4.437000000     0.273000000     2.743000000
H    -4.716000000     1.753000000     2.591000000
