161
-3051.16925
C     0.711000000    -0.794000000    -0.976000000
H     1.225000000    -1.298000000    -1.791000000
C     0.185000000     0.490000000    -1.167000000
H     0.307000000     1.016000000    -2.111000000
C    -0.510000000     1.137000000    -0.157000000
C    -0.961000000     2.526000000    -0.479000000
H    -0.509000000     2.861000000    -1.415000000
H    -2.048000000     2.452000000    -0.562000000
H    -0.635000000     3.183000000     0.330000000
C    -0.693000000     0.457000000     1.059000000
H    -1.155000000     1.062000000     1.835000000
C    -0.170000000    -0.799000000     1.284000000
H    -0.373000000    -1.416000000     2.155000000
C     0.519000000    -1.439000000     0.236000000
C     1.243000000    -2.754000000     0.496000000
O     1.533000000    -3.091000000     1.658000000
O     1.339000000    -3.585000000    -0.393000000
O     3.537000000    -3.044000000    -2.082000000
H     4.354000000    -3.058000000    -1.584000000
H     2.850000000    -3.096000000    -1.417000000
O    -5.103000000     0.502000000    -1.462000000
H    -4.722000000     1.379000000    -1.497000000
H    -5.871000000     0.597000000    -0.899000000
O    -4.234000000     4.408000000    -0.136000000
H    -5.019000000     4.184000000     0.364000000
H    -4.120000000     3.677000000    -0.743000000
O     1.717000000     2.680000000     2.969000000
H     0.829000000     2.898000000     2.686000000
H     2.117000000     2.268000000     2.203000000
O    -0.263000000    -4.030000000     3.485000000
H     0.374000000    -4.539000000     3.986000000
H     0.262000000    -3.554000000     2.843000000
O     3.859000000    -0.291000000     2.646000000
H     3.925000000    -0.558000000     1.729000000
H     4.683000000    -0.579000000     3.039000000
O     2.066000000    -6.088000000     0.248000000
H     1.212000000    -6.333000000     0.605000000
H     1.970000000    -5.166000000     0.010000000
O     2.259000000    -2.811000000     6.409000000
H     1.421000000    -3.022000000     6.820000000
H     2.028000000    -2.529000000     5.524000000
O     0.182000000     3.464000000     6.383000000
H    -0.705000000     3.582000000     6.045000000
H     0.428000000     2.580000000     6.109000000
O    -3.912000000    -1.344000000     2.807000000
H    -4.772000000    -1.644000000     2.515000000
H    -3.294000000    -1.778000000     2.219000000
O     5.640000000    -5.550000000     1.884000000
H     5.732000000    -5.265000000     2.793000000
H     6.516000000    -5.847000000     1.636000000
O    -0.862000000     4.015000000     3.405000000
H    -1.771000000     4.169000000     3.662000000
H    -0.677000000     4.698000000     2.761000000
O    -3.182000000    -4.560000000    -2.252000000
H    -3.110000000    -3.647000000    -1.973000000
H    -4.064000000    -4.822000000    -1.990000000
O     1.087000000    -3.758000000    -5.320000000
H     1.134000000    -2.805000000    -5.396000000
H     0.445000000    -3.912000000    -4.627000000
O     4.687000000    -3.044000000     1.220000000
H     3.753000000    -2.905000000     1.371000000
H     4.874000000    -3.887000000     1.634000000
O    -3.997000000     5.955000000    -2.272000000
H    -4.149000000     5.392000000    -1.512000000
H    -4.235000000     5.412000000    -3.023000000
O     1.881000000     5.247000000     0.074000000
H     2.036000000     6.054000000    -0.417000000
H     2.733000000     4.813000000     0.098000000
O     4.230000000    -7.720000000     0.611000000
H     4.719000000    -7.150000000     1.204000000
H     3.491000000    -7.186000000     0.320000000
O    -1.492000000     2.260000000    -3.896000000
H    -0.946000000     2.922000000    -4.320000000
H    -0.881000000     1.751000000    -3.364000000
O    -0.470000000    -6.658000000     1.647000000
H    -1.290000000    -6.860000000     1.197000000
H    -0.671000000    -5.885000000     2.175000000
O    -2.654000000    -3.824000000     4.442000000
H    -1.742000000    -4.043000000     4.248000000
H    -2.734000000    -2.900000000     4.205000000
O     1.764000000     1.247000000    -6.557000000
H     2.590000000     1.729000000    -6.498000000
H     1.116000000     1.912000000    -6.789000000
O     0.170000000     4.309000000    -5.185000000
H     0.333000000     4.378000000    -6.126000000
H     0.457000000     5.150000000    -4.830000000
O     2.752000000     1.821000000    -3.073000000
H     3.033000000     0.914000000    -3.192000000
H     3.425000000     2.340000000    -3.513000000
O     6.290000000    -1.359000000     3.324000000
H     5.787000000    -2.052000000     2.896000000
H     7.122000000    -1.774000000     3.553000000
O     3.374000000    -4.762000000    -4.381000000
H     2.646000000    -4.310000000    -4.808000000
H     3.796000000    -4.088000000    -3.849000000
O    -1.727000000     6.468000000    -4.183000000
H    -1.607000000     5.658000000    -4.677000000
H    -2.295000000     6.222000000    -3.453000000
O    -3.906000000     2.828000000    -2.424000000
H    -4.582000000     3.300000000    -2.910000000
H    -3.248000000     2.607000000    -3.084000000
O    -2.568000000    -3.779000000     0.903000000
H    -1.794000000    -3.322000000     1.231000000
H    -2.879000000    -3.234000000     0.180000000
O     3.514000000    -0.770000000    -3.493000000
H     4.452000000    -0.604000000    -3.390000000
H     3.368000000    -1.603000000    -3.046000000
O     5.895000000    -2.556000000    -0.960000000
H     6.844000000    -2.531000000    -0.833000000
H     5.538000000    -2.634000000    -0.075000000
O     4.127000000    -0.352000000    -0.093000000
H     5.027000000    -0.107000000     0.120000000
H     4.216000000    -1.050000000    -0.742000000
O     4.948000000    -4.497000000     4.348000000
H     4.019000000    -4.721000000     4.288000000
H     5.242000000    -4.914000000     5.158000000
O     2.651000000    -7.099000000    -2.624000000
H     2.736000000    -6.661000000    -3.471000000
H     2.608000000    -6.384000000    -1.989000000
O    -2.691000000     6.792000000     0.766000000
H    -1.790000000     6.486000000     0.871000000
H    -3.152000000     6.050000000     0.373000000
O    -2.864000000    -1.731000000    -0.943000000
H    -3.355000000    -0.977000000    -1.268000000
H    -2.214000000    -1.355000000    -0.349000000
O    -0.348000000    -4.165000000    -2.949000000
H     0.355000000    -4.011000000    -2.318000000
H    -1.152000000    -4.004000000    -2.455000000
O     5.031000000     2.709000000    -1.250000000
H     4.140000000     2.363000000    -1.297000000
H     5.292000000     2.574000000    -0.339000000
O    -1.625000000    -1.564000000     5.825000000
H    -0.889000000    -1.147000000     6.274000000
H    -1.421000000    -2.499000000     5.849000000
O     2.539000000     1.962000000     0.280000000
H     2.927000000     1.124000000     0.028000000
H     1.933000000     2.170000000    -0.431000000
O     1.960000000    -1.730000000     3.831000000
H     2.475000000    -1.072000000     3.364000000
H     1.818000000    -2.424000000     3.188000000
O    -3.281000000     2.198000000    -6.178000000
H    -3.462000000     1.373000000    -5.726000000
H    -2.766000000     2.706000000    -5.551000000
O     1.325000000    -1.049000000    -5.330000000
H     1.869000000    -0.866000000    -4.564000000
H     1.240000000    -0.204000000    -5.771000000
O    -0.187000000     6.016000000     1.554000000
H     0.085000000     6.851000000     1.933000000
H     0.579000000     5.714000000     1.065000000
O     2.333000000    -5.216000000     3.223000000
H     2.715000000    -5.994000000     2.816000000
H     2.252000000    -4.587000000     2.506000000
O     0.484000000     1.195000000     4.751000000
H     0.485000000     1.866000000     4.068000000
H     0.142000000     0.413000000     4.317000000
O    -3.818000000     3.618000000     4.255000000
H    -3.508000000     2.714000000     4.308000000
H    -4.189000000     3.693000000     3.376000000
O    -3.040000000     1.159000000     4.316000000
H    -3.408000000     0.365000000     3.928000000
H    -2.671000000     0.869000000     5.151000000
