161
-3055.41904
C     1.450000000    -0.125000000     0.246000000
H     2.509000000    -0.274000000     0.436000000
C     0.632000000    -1.199000000     0.092000000
H     1.063000000    -2.197000000     0.063000000
C    -0.751000000    -0.944000000    -0.152000000
C    -1.807000000    -2.070000000    -0.311000000
H    -2.765000000    -1.808000000    -0.767000000
H    -1.400000000    -2.852000000    -0.955000000
H    -2.027000000    -2.538000000     0.651000000
C    -1.240000000     0.373000000    -0.240000000
H    -2.264000000     0.542000000    -0.565000000
C    -0.328000000     1.422000000    -0.019000000
H    -0.728000000     2.432000000    -0.015000000
C     1.061000000     1.226000000     0.221000000
C     1.974000000     2.363000000     0.391000000
O     1.548000000     3.280000000     1.044000000
O     3.078000000     2.374000000    -0.114000000
O     2.258000000    -3.409000000    -1.973000000
H     1.578000000    -2.907000000    -2.422000000
H     2.346000000    -4.210000000    -2.490000000
O    -3.798000000     2.444000000     1.381000000
H    -4.677000000     2.668000000     1.684000000
H    -3.601000000     1.611000000     1.808000000
O    -7.127000000     1.798000000    -0.285000000
H    -7.663000000     1.935000000     0.496000000
H    -6.371000000     1.301000000     0.027000000
O     2.822000000     5.034000000     3.507000000
H     1.883000000     4.856000000     3.556000000
H     3.014000000     5.048000000     2.569000000
O     3.213000000     5.214000000     0.842000000
H     2.729000000     4.403000000     0.995000000
H     3.313000000     5.259000000    -0.109000000
O    -2.308000000     4.006000000    -0.661000000
H    -3.138000000     4.466000000    -0.785000000
H    -2.562000000     3.112000000    -0.433000000
O    -6.486000000    -4.166000000    -1.284000000
H    -6.249000000    -3.596000000    -2.016000000
H    -6.104000000    -5.014000000    -1.507000000
O    -5.201000000    -5.326000000     1.173000000
H    -4.409000000    -5.441000000     0.647000000
H    -5.765000000    -4.767000000     0.638000000
O    -5.314000000     0.408000000    -2.321000000
H    -6.060000000     1.003000000    -2.253000000
H    -5.184000000     0.083000000    -1.430000000
O     2.965000000     7.928000000     1.691000000
H     2.170000000     8.107000000     2.193000000
H     2.922000000     6.991000000     1.501000000
O    -1.183000000    -4.242000000     2.313000000
H    -1.705000000    -5.019000000     2.508000000
H    -0.339000000    -4.408000000     2.734000000
O     0.142000000     0.837000000    -3.712000000
H     0.506000000     0.911000000    -4.595000000
H     0.795000000     0.335000000    -3.225000000
O    -2.470000000    -4.662000000    -3.080000000
H    -2.745000000    -4.703000000    -2.164000000
H    -2.362000000    -3.727000000    -3.256000000
O     4.434000000    -2.386000000     0.020000000
H     4.046000000    -2.966000000    -0.636000000
H     5.186000000    -1.993000000    -0.422000000
O    -0.185000000     0.321000000     3.295000000
H    -0.103000000     0.358000000     2.342000000
H    -0.689000000    -0.476000000     3.462000000
O     0.482000000    -4.710000000    -4.484000000
H     0.213000000    -5.456000000    -3.949000000
H    -0.113000000    -4.726000000    -5.234000000
O    -2.651000000     3.635000000     3.863000000
H    -3.133000000     3.280000000     3.116000000
H    -1.730000000     3.551000000     3.615000000
O     3.724000000     3.178000000    -2.634000000
H     3.521000000     2.992000000    -1.718000000
H     2.897000000     3.485000000    -3.005000000
O     0.327000000    -2.176000000    -3.613000000
H     0.467000000    -3.014000000    -4.054000000
H    -0.610000000    -2.006000000    -3.712000000
O     5.701000000    -0.594000000    -3.219000000
H     5.922000000    -0.531000000    -2.290000000
H     4.744000000    -0.580000000    -3.239000000
O     2.840000000    -0.982000000    -3.718000000
H     2.599000000    -1.153000000    -2.807000000
H     2.050000000    -1.189000000    -4.218000000
O     2.413000000    -5.528000000    -0.140000000
H     3.143000000    -5.340000000     0.449000000
H     2.292000000    -4.720000000    -0.638000000
O    -2.297000000    -1.601000000    -4.036000000
H    -3.137000000    -1.547000000    -4.492000000
H    -2.222000000    -0.767000000    -3.573000000
O    -4.532000000    -0.240000000    -5.064000000
H    -4.957000000     0.314000000    -5.719000000
H    -4.633000000     0.240000000    -4.242000000
O     2.878000000    -3.058000000     4.772000000
H     3.249000000    -2.446000000     4.137000000
H     2.056000000    -2.651000000     5.045000000
O    -3.030000000    -5.445000000    -0.431000000
H    -2.275000000    -5.490000000     0.155000000
H    -3.217000000    -6.357000000    -0.652000000
O     2.750000000    -0.737000000     3.066000000
H     2.117000000    -0.289000000     3.627000000
H     2.225000000    -1.095000000     2.350000000
O     0.183000000     3.083000000     3.224000000
H    -0.058000000     2.156000000     3.235000000
H     0.734000000     3.178000000     2.446000000
O     7.548000000     2.232000000    -0.681000000
H     7.089000000     3.056000000    -0.519000000
H     6.851000000     1.579000000    -0.746000000
O    -5.351000000    -0.235000000     0.155000000
H    -5.664000000    -1.140000000     0.150000000
H    -4.593000000    -0.247000000     0.739000000
O     4.969000000     0.580000000    -0.391000000
H     5.012000000     0.447000000     0.556000000
H     4.390000000     1.335000000    -0.501000000
O    -1.045000000     3.526000000    -3.170000000
H    -1.415000000     3.687000000    -2.302000000
H    -0.705000000     2.633000000    -3.123000000
O     5.264000000    -4.378000000     1.867000000
H     5.881000000    -4.114000000     2.549000000
H     5.108000000    -3.580000000     1.362000000
O     0.131000000    -6.664000000     0.935000000
H     0.325000000    -7.339000000     1.586000000
H     0.952000000    -6.183000000     0.837000000
O    -0.229000000     5.714000000     4.786000000
H    -0.881000000     5.209000000     4.301000000
H    -0.690000000     6.010000000     5.571000000
O     5.707000000     4.740000000    -3.521000000
H     5.244000000     3.982000000    -3.164000000
H     5.270000000     4.917000000    -4.354000000
O     7.172000000    -0.448000000     2.429000000
H     7.822000000    -0.024000000     2.989000000
H     6.374000000     0.066000000     2.557000000
O    -4.524000000    -3.370000000     3.408000000
H    -4.670000000    -3.942000000     2.654000000
H    -5.234000000    -2.730000000     3.365000000
O     3.229000000     5.844000000    -1.929000000
H     3.800000000     5.146000000    -2.251000000
H     3.602000000     6.646000000    -2.293000000
O    -2.103000000    -1.890000000     3.266000000
H    -2.988000000    -2.213000000     3.437000000
H    -1.665000000    -2.616000000     2.822000000
O     0.239000000    -6.713000000    -2.333000000
H     1.187000000    -6.846000000    -2.342000000
H     0.068000000    -6.260000000    -1.507000000
O    -0.284000000     5.378000000     0.727000000
H    -0.976000000     4.847000000     0.331000000
H     0.453000000     4.775000000     0.827000000
O    -3.892000000     0.096000000     2.755000000
H    -4.454000000     0.349000000     3.487000000
H    -3.175000000    -0.391000000     3.160000000
O    -6.242000000    -2.556000000    -3.462000000
H    -5.546000000    -1.900000000    -3.440000000
H    -6.570000000    -2.527000000    -4.361000000
O     0.543000000     7.270000000    -1.543000000
H    -0.005000000     6.821000000    -0.900000000
H     1.227000000     6.637000000    -1.759000000
O     1.051000000     3.380000000     5.916000000
H     0.856000000     3.130000000     5.013000000
H     1.445000000     4.250000000     5.844000000
O     6.295000000     4.516000000     0.751000000
H     5.384000000     4.774000000     0.893000000
H     6.630000000     5.158000000     0.124000000
O     4.660000000     1.378000000     2.665000000
H     3.900000000     0.822000000     2.835000000
H     4.398000000     2.244000000     2.977000000
