161
-3058.08670
C     1.121000000     0.928000000    -0.239000000
H     1.916000000     1.562000000    -0.624000000
C     1.075000000    -0.440000000    -0.507000000
H     1.933000000    -0.912000000    -0.978000000
C    -0.004000000    -1.257000000    -0.245000000
C    -0.075000000    -2.730000000    -0.586000000
H    -1.012000000    -2.916000000    -1.116000000
H     0.741000000    -2.967000000    -1.272000000
H    -0.065000000    -3.267000000     0.364000000
C    -1.087000000    -0.687000000     0.454000000
H    -1.975000000    -1.204000000     0.809000000
C    -1.099000000     0.712000000     0.684000000
H    -1.993000000     1.202000000     1.061000000
C    -0.010000000     1.575000000     0.311000000
C     0.123000000     3.047000000     0.515000000
O    -0.703000000     3.658000000     1.178000000
O     1.119000000     3.698000000     0.186000000
O    -2.469000000     4.358000000     3.006000000
H    -3.216000000     4.569000000     2.445000000
H    -1.722000000     4.330000000     2.409000000
O    -2.988000000     4.117000000    -0.582000000
H    -3.636000000     3.747000000     0.018000000
H    -2.250000000     4.355000000    -0.022000000
O    -3.943000000     6.516000000     1.751000000
H    -3.306000000     7.097000000     2.166000000
H    -4.750000000     6.651000000     2.249000000
O     0.889000000    -5.684000000     1.652000000
H     1.523000000    -4.979000000     1.515000000
H     1.171000000    -6.378000000     1.058000000
O    -1.205000000     1.789000000     4.170000000
H    -1.819000000     2.247000000     3.595000000
H    -1.475000000     2.038000000     5.055000000
O    -1.048000000     6.592000000    -2.544000000
H    -0.484000000     6.903000000    -1.836000000
H    -0.470000000     6.068000000    -3.098000000
O     3.246000000    -1.017000000    -4.216000000
H     4.094000000    -1.197000000    -4.623000000
H     2.784000000    -1.855000000    -4.245000000
O    -6.562000000     1.609000000    -1.605000000
H    -5.678000000     1.900000000    -1.380000000
H    -6.608000000     0.710000000    -1.280000000
O    -4.331000000    -1.994000000     0.264000000
H    -4.451000000    -1.225000000    -0.294000000
H    -4.877000000    -1.821000000     1.031000000
O    -0.840000000    -2.912000000     4.889000000
H    -0.752000000    -2.123000000     4.355000000
H    -0.527000000    -2.651000000     5.755000000
O     6.216000000    -0.824000000     0.624000000
H     6.166000000     0.110000000     0.420000000
H     6.477000000    -0.855000000     1.544000000
O     1.008000000    -2.867000000    -5.033000000
H     0.683000000    -2.020000000    -4.729000000
H     0.536000000    -3.509000000    -4.503000000
O    -3.676000000    -4.596000000    -0.225000000
H    -3.830000000    -3.686000000     0.029000000
H    -4.464000000    -4.847000000    -0.706000000
O     2.003000000     1.231000000    -3.742000000
H     2.226000000     0.305000000    -3.828000000
H     2.694000000     1.594000000    -3.187000000
O    -4.593000000     0.940000000     3.079000000
H    -4.931000000     0.045000000     3.121000000
H    -4.829000000     1.325000000     3.923000000
O    -2.069000000    -5.552000000     1.849000000
H    -2.468000000    -5.082000000     1.117000000
H    -1.163000000    -5.696000000     1.574000000
O     3.952000000     3.251000000     0.061000000
H     4.510000000     3.884000000     0.514000000
H     3.098000000     3.680000000     0.008000000
O    -0.939000000    -4.737000000    -3.104000000
H    -0.529000000    -4.619000000    -2.247000000
H    -0.538000000    -5.533000000    -3.453000000
O     3.846000000    -3.236000000    -1.383000000
H     3.542000000    -2.967000000    -0.516000000
H     3.398000000    -4.065000000    -1.548000000
O    -4.917000000     3.218000000     1.543000000
H    -5.540000000     3.804000000     1.973000000
H    -4.928000000     2.424000000     2.077000000
O     4.929000000    -0.667000000    -1.798000000
H     4.462000000    -1.393000000    -2.211000000
H     5.224000000    -1.019000000    -0.958000000
O     2.996000000    -3.586000000     1.793000000
H     2.667000000    -2.704000000     1.965000000
H     3.948000000    -3.486000000     1.767000000
O    -3.120000000    -0.792000000    -3.857000000
H    -3.044000000     0.157000000    -3.949000000
H    -3.843000000    -1.033000000    -4.436000000
O    -5.525000000    -2.703000000    -2.987000000
H    -5.424000000    -2.461000000    -3.908000000
H    -4.805000000    -3.311000000    -2.820000000
O    -1.290000000     5.841000000     5.032000000
H    -1.597000000     5.332000000     4.282000000
H    -1.883000000     5.601000000     5.744000000
O     0.399000000     3.460000000    -3.518000000
H     0.986000000     3.976000000    -2.965000000
H     0.768000000     2.577000000    -3.500000000
O     3.723000000    -6.008000000    -2.057000000
H     4.292000000    -5.848000000    -2.811000000
H     2.836000000    -5.973000000    -2.414000000
O    -3.808000000     5.601000000    -2.646000000
H    -3.033000000     6.160000000    -2.700000000
H    -3.567000000     4.918000000    -2.020000000
O    -5.555000000    -1.973000000     2.872000000
H    -6.085000000    -2.721000000     2.596000000
H    -4.957000000    -2.332000000     3.528000000
O    -0.343000000    -0.719000000     3.374000000
H    -0.634000000    -0.851000000     2.472000000
H    -0.752000000     0.105000000     3.639000000
O     4.368000000     2.253000000    -2.377000000
H     4.330000000     2.551000000    -1.468000000
H     4.714000000     1.363000000    -2.323000000
O     0.338000000    -6.867000000    -2.224000000
H     0.291000000    -7.601000000    -2.836000000
H     0.826000000    -7.210000000    -1.475000000
O     2.432000000    -1.115000000     3.010000000
H     2.700000000    -0.198000000     2.957000000
H     1.494000000    -1.080000000     3.197000000
O    -0.308000000    -1.138000000    -3.324000000
H    -1.259000000    -1.036000000    -3.305000000
H    -0.051000000    -1.160000000    -2.402000000
O    -2.333000000     2.618000000    -3.356000000
H    -1.464000000     2.973000000    -3.545000000
H    -2.656000000     3.150000000    -2.629000000
O     1.376000000     6.617000000    -4.291000000
H     1.722000000     6.186000000    -3.510000000
H     1.980000000     6.368000000    -4.991000000
O     3.258000000     1.436000000     2.262000000
H     2.981000000     1.992000000     1.534000000
H     4.213000000     1.418000000     2.200000000
O     1.750000000     1.981000000     4.562000000
H     0.802000000     1.857000000     4.519000000
H     1.998000000     2.238000000     3.674000000
O    -3.639000000    -4.909000000    -3.484000000
H    -2.738000000    -4.609000000    -3.361000000
H    -3.565000000    -5.859000000    -3.575000000
O     4.084000000     7.705000000    -0.196000000
H     4.212000000     7.082000000    -0.911000000
H     3.366000000     7.335000000     0.319000000
O    -3.049000000    -3.784000000     4.199000000
H    -2.197000000    -3.424000000     4.447000000
H    -2.908000000    -4.149000000     3.325000000
O    -0.039000000    -5.740000000     4.240000000
H    -0.225000000    -4.807000000     4.343000000
H     0.146000000    -5.846000000     3.306000000
O    -0.369000000     6.305000000     1.380000000
H    -1.169000000     6.578000000     1.829000000
H    -0.515000000     5.382000000     1.171000000
O     1.670000000     5.434000000    -1.770000000
H     1.556000000     6.319000000    -1.425000000
H     1.484000000     4.861000000    -1.025000000
O     0.583000000     7.722000000    -0.695000000
H     0.065000000     7.317000000     0.000000000
H     0.823000000     8.581000000    -0.346000000
O     1.084000000     5.220000000     3.897000000
H     0.917000000     6.014000000     3.389000000
H     0.509000000     5.297000000     4.658000000
O     3.874000000     4.785000000     3.957000000
H     4.347000000     4.253000000     4.597000000
H     2.950000000     4.615000000     4.141000000
O     2.713000000     5.876000000     1.347000000
H     2.975000000     5.871000000     2.268000000
H     2.040000000     5.199000000     1.286000000
