161
-3049.43245
C    -0.518000000     1.021000000    -0.907000000
H    -0.881000000     1.732000000    -1.645000000
C     0.047000000    -0.221000000    -1.227000000
H     0.020000000    -0.493000000    -2.279000000
C     0.437000000    -1.154000000    -0.289000000
C     0.964000000    -2.492000000    -0.831000000
H     1.316000000    -2.297000000    -1.846000000
H     1.813000000    -2.840000000    -0.239000000
H     0.167000000    -3.235000000    -0.773000000
C     0.331000000    -0.784000000     1.082000000
H     0.614000000    -1.510000000     1.840000000
C    -0.072000000     0.489000000     1.380000000
H    -0.082000000     0.868000000     2.398000000
C    -0.540000000     1.445000000     0.432000000
C    -1.033000000     2.786000000     0.873000000
O    -0.926000000     3.226000000     1.969000000
O    -1.665000000     3.464000000     0.057000000
O    -1.659000000     1.888000000     4.272000000
H    -2.505000000     2.272000000     4.505000000
H    -1.181000000     2.601000000     3.848000000
O    -2.992000000     5.082000000     1.874000000
H    -3.506000000     5.220000000     1.078000000
H    -2.158000000     4.731000000     1.562000000
O     1.963000000    -2.421000000    -5.763000000
H     1.326000000    -2.050000000    -5.152000000
H     2.813000000    -2.243000000    -5.361000000
O     4.907000000    -2.180000000    -2.547000000
H     4.553000000    -2.765000000    -3.217000000
H     4.974000000    -1.330000000    -2.982000000
O     1.030000000    -4.872000000     3.386000000
H     1.484000000    -4.363000000     2.714000000
H     1.516000000    -5.695000000     3.432000000
O    -3.381000000     0.589000000     1.701000000
H    -2.574000000     0.967000000     1.350000000
H    -3.123000000     0.217000000     2.545000000
O    -3.738000000     3.573000000     3.951000000
H    -4.624000000     3.323000000     3.689000000
H    -3.396000000     4.062000000     3.202000000
O     0.791000000    -7.812000000    -0.798000000
H     0.222000000    -7.068000000    -0.997000000
H     0.693000000    -7.943000000     0.145000000
O    -1.650000000     7.559000000     2.168000000
H    -2.297000000     6.854000000     2.134000000
H    -2.165000000     8.349000000     2.332000000
O     4.057000000    -4.094000000    -4.599000000
H     4.829000000    -4.363000000    -5.098000000
H     3.778000000    -4.889000000    -4.145000000
O    -0.833000000    -0.258000000    -4.873000000
H    -0.619000000    -0.188000000    -5.803000000
H    -1.147000000    -1.156000000    -4.766000000
O    -5.092000000     1.562000000    -0.401000000
H    -4.911000000     0.837000000    -0.999000000
H    -4.365000000     1.547000000     0.221000000
O     4.735000000    -2.412000000     4.601000000
H     5.253000000    -1.882000000     3.995000000
H     3.976000000    -1.866000000     4.808000000
O     4.527000000    -2.005000000     0.534000000
H     5.261000000    -1.884000000     1.136000000
H     4.939000000    -2.149000000    -0.319000000
O     3.218000000    -4.037000000     1.608000000
H     3.733000000    -4.045000000     2.415000000
H     3.620000000    -3.351000000     1.074000000
O    -2.495000000    -2.622000000    -4.761000000
H    -1.825000000    -3.190000000    -4.381000000
H    -3.186000000    -3.221000000    -5.043000000
O     1.510000000     3.697000000    -2.189000000
H     1.245000000     2.803000000    -2.404000000
H     1.406000000     3.755000000    -1.239000000
O    -4.521000000     0.079000000    -2.548000000
H    -5.011000000    -0.228000000    -3.310000000
H    -3.613000000     0.119000000    -2.847000000
O    -5.838000000     2.549000000     2.531000000
H    -5.210000000     1.883000000     2.252000000
H    -6.684000000     2.224000000     2.222000000
O    -3.214000000    -2.888000000     2.978000000
H    -2.433000000    -3.017000000     2.440000000
H    -3.014000000    -2.118000000     3.510000000
O    -3.654000000     6.608000000    -0.636000000
H    -3.032000000     7.286000000    -0.899000000
H    -4.474000000     7.079000000    -0.488000000
O    -0.798000000    -5.746000000    -1.972000000
H    -0.604000000    -5.451000000    -1.083000000
H    -1.609000000    -5.294000000    -2.203000000
O    -3.100000000     2.816000000    -3.886000000
H    -3.324000000     3.510000000    -3.266000000
H    -2.228000000     3.052000000    -4.203000000
O    -1.666000000     7.172000000    -3.218000000
H    -1.807000000     6.493000000    -3.879000000
H    -1.165000000     6.736000000    -2.529000000
O     0.935000000     6.665000000     0.457000000
H     1.346000000     5.850000000     0.745000000
H     0.223000000     6.384000000    -0.118000000
O    -2.837000000    -0.624000000     4.525000000
H    -2.185000000     0.068000000     4.636000000
H    -3.170000000    -0.784000000     5.409000000
O    -0.516000000     5.323000000    -1.422000000
H    -1.074000000     4.644000000    -1.042000000
H     0.207000000     4.842000000    -1.824000000
O     2.918000000    -5.818000000    -0.697000000
H     2.395000000    -6.524000000    -0.317000000
H     2.949000000    -5.149000000    -0.013000000
O     0.567000000    -2.858000000     5.783000000
H     1.366000000    -3.259000000     6.125000000
H     0.391000000    -3.333000000     4.970000000
O    -0.511000000    -5.841000000    -4.665000000
H     0.321000000    -6.183000000    -4.992000000
H    -0.395000000    -5.799000000    -3.715000000
O     0.787000000     1.665000000     5.269000000
H    -0.143000000     1.892000000     5.234000000
H     0.912000000     1.301000000     6.145000000
O    -6.409000000     4.064000000     0.184000000
H    -6.462000000     3.351000000     0.821000000
H    -5.655000000     3.842000000    -0.362000000
O    -3.738000000     4.042000000    -1.583000000
H    -3.008000000     3.701000000    -1.066000000
H    -3.763000000     4.976000000    -1.373000000
O     4.887000000    -0.206000000    -4.317000000
H     5.434000000     0.499000000    -3.969000000
H     4.061000000     0.221000000    -4.542000000
O    -0.652000000     4.401000000    -4.957000000
H     0.032000000     4.026000000    -4.403000000
H    -0.296000000     5.242000000    -5.242000000
O     2.430000000    -0.846000000     4.976000000
H     1.822000000    -1.136000000     5.656000000
H     2.016000000    -0.070000000     4.599000000
O     2.157000000     4.416000000     0.924000000
H     1.751000000     3.903000000     1.623000000
H     3.011000000     4.004000000     0.790000000
O    -0.730000000    -5.557000000     0.737000000
H    -0.826000000    -4.622000000     0.919000000
H    -0.452000000    -5.936000000     1.570000000
O     3.182000000    -6.401000000    -3.492000000
H     3.248000000    -7.348000000    -3.370000000
H     2.879000000    -6.072000000    -2.645000000
O     3.191000000     0.911000000    -0.213000000
H     2.342000000     0.563000000    -0.485000000
H     3.713000000     0.136000000    -0.007000000
O    -1.323000000     8.474000000    -0.556000000
H    -1.767000000     9.056000000     0.061000000
H    -0.728000000     7.958000000    -0.012000000
O    -2.383000000    -3.137000000     0.058000000
H    -3.327000000    -3.283000000    -0.005000000
H    -2.239000000    -2.305000000    -0.393000000
O     2.705000000     3.311000000     3.936000000
H     2.053000000     2.615000000     4.017000000
H     3.197000000     3.275000000     4.757000000
O     0.829000000     1.719000000    -4.040000000
H     1.621000000     1.577000000    -4.559000000
H     0.208000000     1.069000000    -4.367000000
O    -0.168000000     5.494000000     3.313000000
H    -0.542000000     6.266000000     2.888000000
H    -0.571000000     4.753000000     2.860000000
O     2.625000000     6.259000000     3.809000000
H     2.279000000     5.950000000     4.647000000
H     2.016000000     5.913000000     3.156000000
O    -3.881000000     4.164000000     6.473000000
H    -4.781000000     4.485000000     6.518000000
H    -3.736000000     3.985000000     5.544000000
O     1.171000000     5.138000000     6.288000000
H     0.804000000     4.991000000     5.416000000
H     0.516000000     4.779000000     6.887000000
