161
-3042.91721
C     0.300000000     1.179000000    -0.900000000
H     0.599000000     2.011000000    -1.532000000
C     1.018000000     0.012000000    -0.894000000
H     1.904000000    -0.116000000    -1.511000000
C     0.641000000    -1.045000000    -0.071000000
C     1.339000000    -2.327000000    -0.045000000
H     2.248000000    -2.238000000    -0.644000000
H     1.465000000    -2.693000000     0.976000000
H     0.656000000    -3.087000000    -0.429000000
C    -0.535000000    -0.953000000     0.720000000
H    -0.842000000    -1.856000000     1.241000000
C    -1.212000000     0.288000000     0.818000000
H    -2.169000000     0.395000000     1.322000000
C    -0.781000000     1.330000000     0.027000000
C    -1.424000000     2.653000000     0.215000000
O    -2.019000000     2.839000000     1.251000000
O    -1.182000000     3.608000000    -0.536000000
O    -5.307000000     2.827000000     3.436000000
H    -5.218000000     2.807000000     2.483000000
H    -5.690000000     3.684000000     3.622000000
O    -4.740000000     2.631000000     0.806000000
H    -4.845000000     1.939000000     0.153000000
H    -3.793000000     2.719000000     0.914000000
O    -0.514000000    -1.711000000    -3.773000000
H    -1.040000000    -2.359000000    -3.305000000
H     0.253000000    -1.577000000    -3.216000000
O     2.057000000    -3.485000000    -4.412000000
H     2.317000000    -2.651000000    -4.021000000
H     2.283000000    -3.395000000    -5.338000000
O     2.489000000     4.101000000    -3.398000000
H     1.894000000     3.693000000    -4.027000000
H     2.039000000     4.902000000    -3.128000000
O    -2.377000000    -2.191000000     3.227000000
H    -1.560000000    -2.089000000     3.716000000
H    -2.682000000    -1.295000000     3.081000000
O    -3.138000000     7.427000000    -2.423000000
H    -3.284000000     6.971000000    -1.594000000
H    -2.733000000     6.771000000    -2.990000000
O     0.642000000    -6.859000000    -1.087000000
H     0.754000000    -6.295000000    -1.852000000
H    -0.199000000    -6.595000000    -0.716000000
O    -5.423000000     5.952000000     0.785000000
H    -5.753000000     5.402000000     0.075000000
H    -4.488000000     5.754000000     0.827000000
O     3.361000000    -1.450000000    -3.395000000
H     4.286000000    -1.265000000    -3.556000000
H     2.952000000    -0.588000000    -3.327000000
O    -2.690000000     0.002000000    -3.935000000
H    -1.917000000    -0.538000000    -4.104000000
H    -2.609000000     0.734000000    -4.545000000
O     0.838000000    -5.636000000    -3.523000000
H     0.150000000    -5.712000000    -4.184000000
H     1.350000000    -4.875000000    -3.796000000
O    -0.826000000     6.486000000     4.395000000
H    -1.685000000     6.851000000     4.610000000
H    -0.975000000     5.977000000     3.598000000
O     3.282000000     1.486000000    -3.507000000
H     3.721000000     1.436000000    -4.356000000
H     2.983000000     2.393000000    -3.444000000
O    -1.576000000    -6.256000000     0.247000000
H    -2.113000000    -6.792000000     0.830000000
H    -1.686000000    -5.363000000     0.574000000
O     5.354000000    -1.301000000    -0.096000000
H     5.169000000    -0.541000000     0.455000000
H     4.810000000    -2.000000000     0.269000000
O    -4.013000000    -4.682000000     4.239000000
H    -4.608000000    -5.319000000     3.843000000
H    -3.204000000    -4.766000000     3.735000000
O    -4.070000000     0.223000000     2.985000000
H    -4.791000000    -0.335000000     3.276000000
H    -4.327000000     1.106000000     3.254000000
O    -1.052000000     6.007000000    -5.262000000
H    -1.286000000     5.630000000    -6.110000000
H    -1.315000000     5.343000000    -4.624000000
O    -6.986000000     0.478000000     1.111000000
H    -6.083000000     0.349000000     0.821000000
H    -6.992000000     0.173000000     2.018000000
O    -2.731000000    -4.085000000     1.428000000
H    -3.665000000    -3.977000000     1.248000000
H    -2.532000000    -3.408000000     2.075000000
O     0.886000000    -2.378000000     3.781000000
H     1.024000000    -1.934000000     2.945000000
H     1.598000000    -2.065000000     4.339000000
O    -2.021000000    -3.217000000    -2.347000000
H    -2.182000000    -4.149000000    -2.496000000
H    -2.888000000    -2.848000000    -2.180000000
O    -4.533000000     2.206000000    -2.312000000
H    -3.959000000     1.444000000    -2.385000000
H    -5.179000000     2.086000000    -3.009000000
O    -1.794000000     5.444000000     1.738000000
H    -1.834000000     4.493000000     1.636000000
H    -1.465000000     5.762000000     0.897000000
O     2.220000000    -7.587000000     1.200000000
H     2.649000000    -8.443000000     1.180000000
H     1.799000000    -7.511000000     0.344000000
O     6.244000000    -1.904000000    -2.611000000
H     7.041000000    -2.143000000    -2.138000000
H     5.605000000    -1.716000000    -1.923000000
O     3.655000000    -6.649000000    -1.812000000
H     2.769000000    -6.376000000    -1.575000000
H     3.588000000    -7.595000000    -1.940000000
O     3.494000000     2.708000000    -1.006000000
H     3.729000000     3.506000000    -1.481000000
H     3.699000000     1.998000000    -1.615000000
O    -0.297000000     0.175000000     4.643000000
H    -0.878000000     0.901000000     4.416000000
H    -0.758000000    -0.291000000     5.340000000
O    -7.490000000     3.090000000     0.686000000
H    -6.626000000     3.435000000     0.913000000
H    -7.442000000     2.160000000     0.907000000
O     6.959000000     0.679000000    -1.135000000
H     7.770000000     0.399000000    -1.560000000
H     6.525000000    -0.138000000    -0.886000000
O    -3.653000000     4.719000000    -1.159000000
H    -2.701000000     4.621000000    -1.172000000
H    -3.985000000     3.872000000    -1.457000000
O     0.628000000     3.080000000    -5.211000000
H    -0.176000000     3.036000000    -4.694000000
H     0.750000000     2.190000000    -5.541000000
O     1.393000000    -5.047000000     4.426000000
H     0.976000000    -4.247000000     4.106000000
H     1.421000000    -4.939000000     5.376000000
O     5.073000000    -4.732000000     3.378000000
H     5.343000000    -3.851000000     3.635000000
H     4.904000000    -4.667000000     2.438000000
O     4.025000000     0.822000000     1.186000000
H     4.067000000     1.510000000     0.522000000
H     3.092000000     0.733000000     1.380000000
O     1.327000000     4.319000000    -0.141000000
H     1.844000000     3.735000000    -0.696000000
H     0.419000000     4.134000000    -0.377000000
O     4.608000000    -4.881000000     0.662000000
H     4.078000000    -5.407000000     0.064000000
H     5.417000000    -4.710000000     0.179000000
O    -1.729000000     4.308000000    -3.151000000
H    -1.411000000     3.960000000    -2.318000000
H    -2.426000000     3.706000000    -3.411000000
O    -4.760000000    -0.165000000    -0.209000000
H    -3.843000000    -0.386000000    -0.046000000
H    -5.007000000    -0.707000000    -0.959000000
O     1.995000000     0.537000000     3.288000000
H     1.861000000     1.419000000     2.942000000
H     1.174000000     0.327000000     3.732000000
O    -0.765000000     6.885000000    -0.532000000
H    -0.598000000     7.449000000    -1.287000000
H     0.043000000     6.382000000    -0.426000000
O     1.787000000     6.423000000     1.591000000
H     1.647000000     5.511000000     1.337000000
H     2.285000000     6.371000000     2.406000000
O    -1.837000000     2.655000000     4.000000000
H    -2.187000000     3.403000000     4.484000000
H    -2.100000000     2.812000000     3.093000000
O     0.739000000     3.090000000     2.818000000
H     0.601000000     3.409000000     1.926000000
H    -0.143000000     2.959000000     3.165000000
O    -2.920000000     4.842000000     5.322000000
H    -3.644000000     4.477000000     5.831000000
H    -3.346000000     5.334000000     4.620000000
O     1.162000000     6.531000000    -3.097000000
H     1.204000000     7.487000000    -3.122000000
H     0.351000000     6.315000000    -3.557000000
