161
-3056.63247
C     0.625000000     0.796000000    -1.069000000
H     1.164000000     1.281000000    -1.879000000
C     1.028000000    -0.480000000    -0.659000000
H     1.756000000    -1.101000000    -1.174000000
C     0.372000000    -1.110000000     0.426000000
C     0.794000000    -2.509000000     0.854000000
H     0.359000000    -2.626000000     1.849000000
H     0.360000000    -3.212000000     0.141000000
H     1.864000000    -2.694000000     0.972000000
C    -0.755000000    -0.440000000     0.982000000
H    -1.417000000    -0.905000000     1.708000000
C    -1.114000000     0.849000000     0.595000000
H    -2.018000000     1.265000000     1.033000000
C    -0.452000000     1.413000000    -0.517000000
C    -0.684000000     2.848000000    -0.868000000
O    -1.809000000     3.235000000    -0.618000000
O    -0.080000000     3.384000000    -1.772000000
O    -4.136000000     0.610000000    -1.318000000
H    -4.723000000     0.642000000    -2.074000000
H    -3.302000000     0.306000000    -1.675000000
O    -3.784000000     4.449000000    -2.119000000
H    -3.049000000     4.158000000    -1.580000000
H    -4.547000000     4.014000000    -1.739000000
O    -3.907000000    -4.112000000    -2.378000000
H    -3.735000000    -3.327000000    -1.859000000
H    -4.809000000    -4.348000000    -2.165000000
O     1.950000000     4.325000000    -5.844000000
H     1.303000000     3.709000000    -5.499000000
H     1.986000000     4.133000000    -6.781000000
O     1.530000000    -3.905000000    -4.777000000
H     1.058000000    -4.457000000    -4.154000000
H     1.582000000    -4.433000000    -5.574000000
O    -2.224000000     0.438000000    -3.326000000
H    -1.404000000     0.084000000    -2.983000000
H    -1.958000000     1.189000000    -3.856000000
O    -2.489000000    -2.557000000     3.921000000
H    -2.900000000    -1.885000000     4.465000000
H    -1.559000000    -2.328000000     3.921000000
O     5.622000000     3.420000000    -1.492000000
H     4.665000000     3.396000000    -1.484000000
H     5.854000000     3.408000000    -2.421000000
O    -4.007000000     5.196000000     3.614000000
H    -3.964000000     6.153000000     3.617000000
H    -3.444000000     4.934000000     2.886000000
O     3.749000000    -2.589000000    -3.527000000
H     3.813000000    -1.732000000    -3.949000000
H     2.909000000    -2.939000000    -3.822000000
O     3.870000000    -4.922000000    -2.409000000
H     3.729000000    -4.099000000    -2.877000000
H     4.801000000    -5.109000000    -2.528000000
O    -4.202000000    -2.088000000    -0.379000000
H    -4.062000000    -1.195000000    -0.694000000
H    -5.150000000    -2.159000000    -0.271000000
O    -4.247000000     6.576000000    -3.778000000
H    -3.925000000     5.915000000    -3.165000000
H    -4.064000000     7.411000000    -3.348000000
O    -0.434000000    -5.576000000     2.281000000
H    -0.916000000    -5.542000000     3.108000000
H    -0.785000000    -4.847000000     1.770000000
O    -2.891000000     6.615000000    -0.054000000
H    -2.477000000     6.118000000    -0.760000000
H    -2.725000000     7.531000000    -0.276000000
O     0.053000000     2.876000000     4.542000000
H    -0.179000000     3.505000000     5.226000000
H     0.197000000     3.412000000     3.762000000
O     4.028000000    -3.554000000     5.599000000
H     4.882000000    -3.180000000     5.818000000
H     3.740000000    -3.061000000     4.831000000
O     2.898000000    -0.879000000     4.019000000
H     2.060000000    -0.426000000     3.927000000
H     3.429000000    -0.294000000     4.560000000
O     2.278000000    -5.550000000     2.505000000
H     1.365000000    -5.401000000     2.260000000
H     2.628000000    -4.674000000     2.669000000
O    -1.189000000    -0.784000000     6.158000000
H    -2.090000000    -0.924000000     5.867000000
H    -0.679000000    -1.440000000     5.683000000
O    -2.185000000     3.090000000    -4.938000000
H    -2.748000000     3.428000000    -4.242000000
H    -2.466000000     3.560000000    -5.723000000
O     6.832000000    -2.455000000    -1.975000000
H     6.036000000    -2.079000000    -2.351000000
H     7.523000000    -1.836000000    -2.208000000
O     2.109000000     5.405000000     0.509000000
H     2.421000000     6.274000000     0.257000000
H     2.048000000     4.924000000    -0.316000000
O    -1.162000000     5.778000000    -2.503000000
H    -0.863000000     4.967000000    -2.090000000
H    -1.028000000     5.633000000    -3.440000000
O     5.250000000    -5.116000000     2.332000000
H     6.070000000    -4.633000000     2.236000000
H     4.609000000    -4.452000000     2.586000000
O    -2.807000000     2.225000000     3.657000000
H    -2.755000000     3.054000000     3.181000000
H    -2.170000000     2.315000000     4.366000000
O     4.376000000    -2.336000000    -0.088000000
H     5.326000000    -2.343000000    -0.206000000
H     4.024000000    -2.496000000    -0.964000000
O    -1.988000000    -5.360000000     4.374000000
H    -2.221000000    -5.828000000     5.175000000
H    -2.691000000    -4.721000000     4.257000000
O    -4.596000000     0.585000000     2.407000000
H    -4.630000000     1.198000000     1.672000000
H    -4.100000000     1.047000000     3.082000000
O     0.292000000    -2.203000000     4.658000000
H     0.276000000    -1.314000000     4.302000000
H     1.216000000    -2.451000000     4.644000000
O     0.282000000     0.300000000     3.666000000
H     0.253000000     1.080000000     4.220000000
H     0.150000000     0.631000000     2.778000000
O     1.987000000     0.517000000    -5.155000000
H     1.410000000     1.234000000    -4.892000000
H     1.457000000    -0.272000000    -5.039000000
O     4.514000000     1.449000000    -5.669000000
H     3.634000000     1.246000000    -5.352000000
H     5.090000000     0.877000000    -5.161000000
O    -2.524000000    -3.486000000     1.255000000
H    -3.111000000    -2.888000000     0.792000000
H    -2.479000000    -3.135000000     2.145000000
O    -0.044000000    -7.353000000     0.047000000
H     0.734000000    -6.972000000    -0.361000000
H    -0.110000000    -6.912000000     0.894000000
O     3.671000000    -2.954000000     2.657000000
H     4.012000000    -2.673000000     1.808000000
H     3.229000000    -2.180000000     3.006000000
O    -4.595000000     2.550000000     0.374000000
H    -3.697000000     2.877000000     0.320000000
H    -4.614000000     1.802000000    -0.223000000
O     2.399000000     4.238000000    -1.806000000
H     2.671000000     4.553000000    -2.668000000
H     1.480000000     3.996000000    -1.919000000
O     0.189000000    -5.632000000    -3.192000000
H     0.417000000    -6.221000000    -2.472000000
H    -0.736000000    -5.808000000    -3.362000000
O     0.407000000     2.523000000    -4.560000000
H     0.338000000     2.695000000    -3.621000000
H    -0.498000000     2.526000000    -4.871000000
O    -1.471000000    -2.225000000    -2.361000000
H    -1.882000000    -3.014000000    -2.715000000
H    -1.366000000    -2.408000000    -1.427000000
O     2.854000000     1.591000000     1.525000000
H     3.272000000     0.873000000     2.001000000
H     2.380000000     1.162000000     0.812000000
O     0.246000000    -1.471000000    -4.544000000
H    -0.361000000    -1.804000000    -3.883000000
H     0.903000000    -2.162000000    -4.634000000
O     2.184000000    -6.867000000    -1.326000000
H     2.423000000    -5.971000000    -1.564000000
H     2.912000000    -7.401000000    -1.644000000
O     0.341000000     7.821000000    -1.985000000
H     0.877000000     7.867000000    -2.776000000
H    -0.138000000     6.996000000    -2.067000000
O    -5.503000000     6.182000000    -0.348000000
H    -4.592000000     6.191000000    -0.054000000
H    -5.983000000     6.635000000     0.346000000
O    -2.123000000     4.417000000     1.828000000
H    -2.088000000     5.370000000     1.749000000
H    -1.820000000     4.095000000     0.979000000
O     1.126000000     3.707000000     2.284000000
H     1.884000000     3.165000000     2.069000000
H     1.153000000     4.421000000     1.647000000
