161
-3044.74030
C     1.097000000     0.929000000    -0.078000000
H     2.003000000     1.527000000    -0.137000000
C     1.170000000    -0.428000000    -0.144000000
H     2.145000000    -0.885000000    -0.294000000
C     0.039000000    -1.196000000    -0.104000000
C     0.169000000    -2.707000000    -0.112000000
H    -0.108000000    -3.123000000     0.859000000
H    -0.343000000    -3.115000000    -0.986000000
H     1.228000000    -2.949000000    -0.223000000
C    -1.202000000    -0.630000000    -0.035000000
H    -2.029000000    -1.335000000    -0.010000000
C    -1.309000000     0.765000000     0.106000000
H    -2.318000000     1.163000000     0.178000000
C    -0.159000000     1.597000000     0.136000000
C    -0.156000000     3.070000000     0.269000000
O    -1.119000000     3.731000000     0.040000000
O     0.887000000     3.594000000     0.535000000
O    -4.322000000     2.248000000    -1.898000000
H    -4.177000000     2.593000000    -1.017000000
H    -5.209000000     1.890000000    -1.873000000
O    -0.217000000    -2.275000000     5.398000000
H     0.615000000    -1.814000000     5.505000000
H    -0.798000000    -1.630000000     4.995000000
O    -1.208000000     7.674000000     2.896000000
H    -1.477000000     8.574000000     2.714000000
H    -0.415000000     7.549000000     2.374000000
O    -4.278000000    -2.161000000    -2.277000000
H    -3.780000000    -2.963000000    -2.119000000
H    -4.911000000    -2.126000000    -1.560000000
O     5.530000000     0.735000000     2.354000000
H     4.708000000     0.270000000     2.197000000
H     6.190000000     0.214000000     1.897000000
O     2.060000000    -7.045000000    -0.847000000
H     2.485000000    -7.778000000    -1.293000000
H     2.749000000    -6.386000000    -0.760000000
O    -1.900000000    -6.566000000    -3.648000000
H    -1.718000000    -6.986000000    -4.488000000
H    -1.101000000    -6.078000000    -3.446000000
O    -4.445000000     2.959000000    -4.577000000
H    -5.254000000     2.448000000    -4.603000000
H    -4.108000000     2.830000000    -3.691000000
O    -0.916000000    -1.730000000    -3.659000000
H    -1.546000000    -1.120000000    -3.275000000
H    -0.607000000    -2.253000000    -2.919000000
O    -4.711000000    -0.926000000     1.864000000
H    -5.386000000    -0.952000000     2.542000000
H    -4.324000000    -0.054000000     1.945000000
O     5.605000000     5.974000000     1.236000000
H     4.698000000     5.671000000     1.222000000
H     5.819000000     6.046000000     2.167000000
O    -0.302000000    -6.943000000     4.343000000
H    -0.289000000    -6.137000000     3.826000000
H    -1.231000000    -7.132000000     4.470000000
O     1.816000000    -4.690000000    -4.912000000
H     2.353000000    -3.947000000    -4.636000000
H     1.407000000    -5.002000000    -4.104000000
O    -0.409000000    -3.058000000    -5.784000000
H    -0.600000000    -2.500000000    -5.030000000
H     0.491000000    -3.351000000    -5.643000000
O    -2.212000000    -5.768000000     0.378000000
H    -2.456000000    -5.548000000     1.277000000
H    -1.665000000    -6.549000000     0.463000000
O    -3.726000000     3.688000000     0.337000000
H    -2.770000000     3.734000000     0.327000000
H    -4.010000000     4.490000000    -0.102000000
O     6.148000000     3.103000000     1.012000000
H     6.001000000     3.823000000     1.626000000
H     5.758000000     2.341000000     1.439000000
O     4.268000000     2.670000000    -1.519000000
H     5.140000000     2.366000000    -1.771000000
H     3.675000000     1.991000000    -1.840000000
O    -2.787000000    -4.507000000    -2.074000000
H    -2.956000000    -4.831000000    -1.189000000
H    -2.856000000    -5.283000000    -2.630000000
O     3.700000000    -3.937000000     0.586000000
H     3.429000000    -3.562000000    -0.251000000
H     4.464000000    -4.472000000     0.373000000
O     1.046000000     0.467000000     4.052000000
H     1.360000000     1.349000000     4.253000000
H     0.117000000     0.486000000     4.281000000
O     0.982000000     6.900000000     0.930000000
H     1.097000000     6.037000000     1.328000000
H     1.522000000     6.873000000     0.141000000
O    -1.353000000     3.658000000    -2.752000000
H    -1.512000000     3.735000000    -1.812000000
H    -0.771000000     4.389000000    -2.958000000
O    -0.799000000    -4.313000000     3.518000000
H    -0.954000000    -3.715000000     2.787000000
H    -0.677000000    -3.740000000     4.275000000
O    -1.465000000     1.954000000     4.813000000
H    -2.004000000     2.622000000     4.388000000
H    -0.988000000     2.429000000     5.494000000
O     3.067000000    -5.822000000     2.421000000
H     3.066000000    -5.317000000     3.234000000
H     3.352000000    -5.199000000     1.752000000
O     4.891000000    -0.625000000    -4.038000000
H     4.771000000     0.030000000    -3.351000000
H     5.623000000    -0.294000000    -4.559000000
O     5.607000000    -1.469000000    -0.552000000
H     6.424000000    -1.218000000    -0.983000000
H     5.886000000    -1.967000000     0.217000000
O     3.294000000    -2.272000000    -1.921000000
H     4.127000000    -2.033000000    -1.515000000
H     3.539000000    -2.655000000    -2.763000000
O    -3.267000000    -5.727000000     3.760000000
H    -2.675000000    -5.064000000     3.405000000
H    -4.131000000    -5.316000000     3.734000000
O    -4.031000000     1.671000000     2.113000000
H    -4.054000000     2.129000000     2.953000000
H    -3.863000000     2.358000000     1.469000000
O    -2.945000000    -3.032000000     2.036000000
H    -2.790000000    -2.722000000     1.144000000
H    -3.652000000    -2.476000000     2.364000000
O    -3.880000000     7.102000000    -0.593000000
H    -2.987000000     7.032000000    -0.257000000
H    -3.775000000     7.430000000    -1.487000000
O    -2.061000000    -0.612000000     4.418000000
H    -2.294000000    -0.561000000     3.491000000
H    -1.713000000     0.255000000     4.626000000
O     2.816000000     6.589000000    -2.149000000
H     3.187000000     6.089000000    -1.422000000
H     3.575000000     6.854000000    -2.669000000
O     2.840000000     0.761000000    -2.794000000
H     1.931000000     0.764000000    -2.494000000
H     2.999000000    -0.141000000    -3.070000000
O    -6.343000000    -2.458000000    -0.159000000
H    -7.197000000    -2.061000000     0.009000000
H    -5.750000000    -2.019000000     0.452000000
O     3.613000000    -2.670000000     2.953000000
H     3.577000000    -3.170000000     2.138000000
H     3.422000000    -1.770000000     2.691000000
O     2.985000000    -0.066000000     2.205000000
H     2.444000000    -0.055000000     1.415000000
H     2.482000000     0.433000000     2.848000000
O     3.185000000     4.689000000     0.257000000
H     3.766000000     3.973000000     0.000000000
H     2.314000000     4.293000000     0.283000000
O    -2.715000000    -0.069000000    -2.849000000
H    -3.492000000    -0.623000000    -2.773000000
H    -2.977000000     0.766000000    -2.462000000
O     1.187000000     3.935000000     3.187000000
H     1.330000000     3.982000000     2.242000000
H     0.331000000     3.517000000     3.280000000
O     0.144000000     1.561000000    -3.505000000
H    -0.669000000     1.185000000    -3.844000000
H    -0.136000000     2.330000000    -3.008000000
O     0.475000000    -5.297000000    -2.548000000
H    -0.047000000    -4.830000000    -1.896000000
H     0.953000000    -5.956000000    -2.044000000
O    -1.291000000     6.279000000    -0.254000000
H    -0.595000000     6.509000000     0.361000000
H    -1.363000000     5.327000000    -0.189000000
O    -2.102000000     4.282000000     3.148000000
H    -2.858000000     4.858000000     3.033000000
H    -1.648000000     4.312000000     2.306000000
O     3.278000000     4.504000000     5.055000000
H     2.697000000     4.480000000     4.294000000
H     3.269000000     3.608000000     5.391000000
O     0.210000000     5.873000000    -2.943000000
H    -0.160000000     6.213000000    -2.128000000
H     0.937000000     6.463000000    -3.140000000
