161
-3044.28169
C     0.998000000     0.946000000     0.539000000
H     1.789000000     1.655000000     0.771000000
C     1.040000000     0.330000000    -0.705000000
H     1.905000000     0.444000000    -1.353000000
C     0.049000000    -0.562000000    -1.070000000
C     0.213000000    -1.373000000    -2.373000000
H    -0.612000000    -1.179000000    -3.062000000
H     1.105000000    -1.106000000    -2.942000000
H     0.209000000    -2.455000000    -2.229000000
C    -0.943000000    -0.871000000    -0.162000000
H    -1.562000000    -1.735000000    -0.387000000
C    -1.068000000    -0.190000000     1.082000000
H    -1.932000000    -0.336000000     1.725000000
C    -0.103000000     0.793000000     1.401000000
C    -0.325000000     1.658000000     2.573000000
O    -1.233000000     1.432000000     3.350000000
O     0.468000000     2.548000000     2.850000000
O    -5.824000000     0.256000000     4.393000000
H    -5.138000000     0.592000000     3.817000000
H    -6.590000000     0.794000000     4.193000000
O     2.036000000     2.648000000    -3.912000000
H     2.603000000     3.242000000    -3.420000000
H     2.632000000     2.165000000    -4.483000000
O    -0.719000000     5.243000000     6.189000000
H    -0.422000000     6.057000000     5.783000000
H    -1.448000000     5.507000000     6.750000000
O    -1.612000000    -4.229000000     1.079000000
H    -2.532000000    -4.172000000     1.337000000
H    -1.317000000    -5.069000000     1.430000000
O     5.961000000     0.322000000    -3.166000000
H     6.894000000     0.307000000    -2.954000000
H     5.528000000     0.486000000    -2.329000000
O    -4.184000000     2.863000000     7.394000000
H    -3.473000000     2.600000000     6.809000000
H    -4.974000000     2.511000000     6.983000000
O    -5.789000000    -1.260000000    -1.001000000
H    -5.061000000    -1.744000000    -0.611000000
H    -5.370000000    -0.621000000    -1.578000000
O    -0.951000000    -5.082000000    -3.995000000
H    -0.854000000    -4.956000000    -3.051000000
H    -0.194000000    -4.636000000    -4.375000000
O    -5.427000000     2.728000000    -0.385000000
H    -5.813000000     1.946000000     0.011000000
H    -4.538000000     2.462000000    -0.621000000
O    -3.746000000     0.262000000    -2.566000000
H    -3.298000000     0.639000000    -1.808000000
H    -4.090000000     1.018000000    -3.041000000
O    -3.359000000     4.505000000     4.393000000
H    -4.160000000     4.603000000     3.879000000
H    -2.911000000     5.346000000     4.301000000
O     5.551000000    -0.987000000     1.795000000
H     5.490000000    -0.427000000     2.569000000
H     6.106000000    -1.716000000     2.070000000
O     4.478000000     1.593000000    -5.003000000
H     4.980000000     0.974000000    -4.471000000
H     4.907000000     1.576000000    -5.859000000
O     2.473000000    -6.147000000    -2.516000000
H     3.025000000    -5.389000000    -2.326000000
H     1.665000000    -5.984000000    -2.029000000
O    -3.716000000    -3.784000000    -1.542000000
H    -3.458000000    -3.468000000    -0.677000000
H    -4.339000000    -4.488000000    -1.364000000
O    -4.169000000     1.528000000     2.821000000
H    -3.309000000     1.518000000     3.242000000
H    -4.476000000     2.429000000     2.927000000
O     5.083000000     4.532000000     2.206000000
H     4.139000000     4.380000000     2.240000000
H     5.317000000     4.381000000     1.290000000
O     2.924000000     4.696000000     7.198000000
H     2.404000000     4.007000000     6.785000000
H     3.007000000     5.370000000     6.523000000
O    -2.060000000    -2.061000000     6.092000000
H    -1.425000000    -1.985000000     5.380000000
H    -2.063000000    -2.992000000     6.312000000
O     5.771000000     0.580000000     4.093000000
H     5.679000000     0.305000000     5.005000000
H     5.031000000     1.169000000     3.944000000
O    -3.436000000    -1.956000000    -4.165000000
H    -3.565000000    -2.670000000    -3.541000000
H    -3.533000000    -1.160000000    -3.642000000
O     3.482000000    -2.875000000     0.511000000
H     3.823000000    -2.956000000    -0.379000000
H     4.098000000    -2.290000000     0.952000000
O     0.929000000    -3.612000000    -5.381000000
H     0.516000000    -4.098000000    -6.096000000
H     1.715000000    -3.232000000    -5.773000000
O    -1.427000000    -0.569000000    -5.435000000
H    -1.822000000    -1.267000000    -4.912000000
H    -0.512000000    -0.832000000    -5.534000000
O     1.083000000     3.311000000     5.313000000
H     0.852000000     2.996000000     4.439000000
H     0.802000000     4.226000000     5.320000000
O    -2.682000000     2.111000000    -0.688000000
H    -2.081000000     2.017000000     0.051000000
H    -2.202000000     2.644000000    -1.322000000
O     1.030000000    -2.463000000     1.994000000
H     1.829000000    -2.344000000     1.481000000
H     0.320000000    -2.287000000     1.376000000
O     2.352000000     1.403000000     6.814000000
H     1.982000000     1.268000000     7.686000000
H     1.752000000     2.020000000     6.393000000
O    -3.846000000     0.088000000    -6.860000000
H    -3.062000000    -0.327000000    -6.502000000
H    -4.480000000     0.061000000    -6.142000000
O    -2.100000000     0.076000000     7.827000000
H    -2.121000000     0.907000000     7.352000000
H    -2.065000000    -0.590000000     7.141000000
O    -0.063000000    -7.846000000    -1.986000000
H    -0.074000000    -6.979000000    -1.580000000
H     0.450000000    -8.386000000    -1.385000000
O     4.298000000    -2.650000000    -2.085000000
H     3.700000000    -2.856000000    -2.804000000
H     5.081000000    -2.308000000    -2.515000000
O    -0.136000000    -1.397000000     4.295000000
H    -0.335000000    -0.466000000     4.197000000
H     0.127000000    -1.680000000     3.419000000
O    -4.819000000    -1.920000000     5.625000000
H    -5.215000000    -1.215000000     5.113000000
H    -3.878000000    -1.828000000     5.473000000
O     3.127000000    -1.732000000    -6.073000000
H     3.801000000    -1.494000000    -5.436000000
H     3.109000000    -0.999000000    -6.688000000
O     4.824000000     0.599000000    -0.511000000
H     4.365000000     1.359000000    -0.153000000
H     5.283000000     0.221000000     0.239000000
O    -1.966000000     2.311000000    -5.542000000
H    -1.148000000     2.786000000    -5.687000000
H    -1.702000000     1.393000000    -5.483000000
O    -0.599000000     3.257000000     8.122000000
H    -0.491000000     4.207000000     8.146000000
H    -0.807000000     3.063000000     7.208000000
O    -4.177000000    -3.527000000     1.414000000
H    -4.714000000    -2.735000000     1.442000000
H    -4.699000000    -4.186000000     1.870000000
O     2.474000000    -1.596000000     5.196000000
H     2.080000000    -1.616000000     4.324000000
H     1.740000000    -1.421000000     5.785000000
O     2.501000000     3.750000000     1.799000000
H     2.232000000     4.231000000     1.016000000
H     1.697000000     3.337000000     2.114000000
O    -5.812000000    -1.660000000     2.031000000
H    -6.579000000    -1.360000000     1.544000000
H    -5.880000000    -1.221000000     2.879000000
O     3.453000000     1.952000000     3.677000000
H     3.120000000     2.631000000     3.091000000
H     2.913000000     2.028000000     4.464000000
O    -0.358000000     2.900000000    -2.256000000
H     0.350000000     2.822000000    -2.896000000
H     0.032000000     3.381000000    -1.525000000
O    -0.253000000    -5.239000000    -0.898000000
H    -0.873000000    -4.706000000    -0.400000000
H     0.453000000    -5.426000000    -0.281000000
O    -0.654000000     5.052000000     2.174000000
H    -0.282000000     4.229000000     2.491000000
H    -1.361000000     5.248000000     2.789000000
O    -2.036000000     2.355000000     5.620000000
H    -1.752000000     2.007000000     4.775000000
H    -2.404000000     3.214000000     5.413000000
O     0.694000000     4.664000000    -0.139000000
H     1.202000000     5.349000000    -0.574000000
H     0.423000000     5.056000000     0.691000000
