161
-3059.67216
C     0.017000000     1.088000000     0.945000000
H    -0.024000000     1.861000000     1.708000000
C     0.772000000     1.050000000    -0.207000000
H     1.342000000     1.963000000    -0.360000000
C     0.757000000    -0.131000000    -0.966000000
C     1.619000000    -0.291000000    -2.152000000
H     1.736000000     0.664000000    -2.668000000
H     2.627000000    -0.457000000    -1.767000000
H     1.315000000    -1.121000000    -2.794000000
C    -0.086000000    -1.197000000    -0.693000000
H     0.034000000    -2.132000000    -1.235000000
C    -0.958000000    -1.034000000     0.393000000
H    -1.733000000    -1.754000000     0.644000000
C    -0.948000000     0.160000000     1.170000000
C    -1.946000000     0.346000000     2.323000000
O    -2.318000000    -0.534000000     2.960000000
O    -2.199000000     1.526000000     2.695000000
O    -1.220000000     0.312000000    -3.986000000
H    -0.738000000     0.911000000    -4.556000000
H    -1.007000000    -0.560000000    -4.320000000
O    -0.113000000     2.050000000     7.111000000
H    -0.814000000     2.289000000     6.505000000
H    -0.489000000     2.187000000     7.980000000
O    -1.011000000    -2.501000000    -4.583000000
H    -1.301000000    -2.992000000    -3.814000000
H    -0.764000000    -3.174000000    -5.218000000
O     2.336000000    -1.819000000     1.894000000
H     1.407000000    -1.800000000     2.122000000
H     2.675000000    -0.977000000     2.200000000
O     4.614000000    -2.017000000    -3.473000000
H     3.900000000    -1.893000000    -4.099000000
H     5.382000000    -1.653000000    -3.911000000
O    -1.542000000     2.718000000    -1.622000000
H    -1.712000000     1.952000000    -2.170000000
H    -1.214000000     2.356000000    -0.799000000
O    -5.416000000    -1.015000000     5.971000000
H    -4.948000000    -1.089000000     6.803000000
H    -6.273000000    -0.660000000     6.209000000
O    -1.640000000     4.165000000     1.692000000
H    -1.862000000     3.309000000     2.060000000
H    -2.341000000     4.744000000     1.993000000
O     3.402000000     2.987000000     4.400000000
H     3.824000000     3.489000000     3.702000000
H     2.469000000     3.180000000     4.302000000
O     0.111000000    -4.716000000    -2.559000000
H     0.642000000    -4.420000000    -1.820000000
H    -0.769000000    -4.394000000    -2.365000000
O     1.113000000     4.786000000     1.269000000
H     0.221000000     4.495000000     1.458000000
H     1.001000000     5.577000000     0.743000000
O     2.122000000    -4.327000000     2.449000000
H     2.191000000    -3.395000000     2.242000000
H     2.964000000    -4.695000000     2.179000000
O     2.058000000    -3.930000000    -0.556000000
H     1.936000000    -4.527000000     0.182000000
H     1.940000000    -3.058000000    -0.181000000
O    -2.454000000    -3.542000000    -2.227000000
H    -3.374000000    -3.352000000    -2.410000000
H    -2.454000000    -3.885000000    -1.333000000
O     0.063000000    -1.773000000     3.390000000
H     0.484000000    -1.124000000     3.953000000
H    -0.770000000    -1.371000000     3.142000000
O    -4.789000000     1.923000000     3.676000000
H    -4.902000000     1.677000000     4.594000000
H    -3.842000000     1.900000000     3.537000000
O    -0.104000000     5.225000000     4.672000000
H     0.741000000     5.659000000     4.786000000
H    -0.617000000     5.835000000     4.142000000
O     2.003000000    -1.517000000    -5.859000000
H     1.325000000    -0.849000000    -5.766000000
H     1.520000000    -2.331000000    -6.004000000
O     3.484000000     0.797000000     2.400000000
H     3.246000000     1.256000000     1.595000000
H     3.342000000     1.440000000     3.095000000
O    -1.294000000    -1.195000000     6.732000000
H    -1.536000000    -1.645000000     5.923000000
H    -0.608000000    -0.582000000     6.470000000
O     4.842000000    -1.889000000     0.518000000
H     5.100000000    -1.049000000     0.138000000
H     3.920000000    -1.774000000     0.748000000
O     3.248000000     2.764000000    -2.957000000
H     3.516000000     2.512000000    -3.841000000
H     2.303000000     2.902000000    -3.023000000
O     0.723000000     4.104000000    -3.226000000
H     0.126000000     4.638000000    -3.749000000
H     0.157000000     3.658000000    -2.596000000
O     0.165000000     1.467000000    -6.494000000
H     1.016000000     1.894000000    -6.595000000
H    -0.114000000     1.275000000    -7.389000000
O     5.302000000     2.247000000    -5.580000000
H     6.011000000     2.090000000    -6.202000000
H     5.176000000     1.405000000    -5.143000000
O     5.623000000     3.942000000    -2.400000000
H     4.874000000     3.430000000    -2.704000000
H     5.250000000     4.564000000    -1.775000000
O     5.478000000     0.509000000    -3.033000000
H     5.691000000     0.884000000    -2.178000000
H     5.029000000    -0.312000000    -2.829000000
O    -0.165000000    -7.542000000    -1.718000000
H    -0.025000000    -6.868000000    -1.053000000
H    -0.242000000    -7.055000000    -2.539000000
O    -6.644000000    -1.596000000     1.812000000
H    -6.436000000    -2.125000000     2.582000000
H    -5.868000000    -1.050000000     1.681000000
O     1.034000000    -6.298000000    -4.658000000
H     1.880000000    -6.706000000    -4.472000000
H     0.931000000    -5.638000000    -3.972000000
O    -2.833000000    -4.566000000     3.360000000
H    -2.699000000    -3.721000000     3.790000000
H    -3.590000000    -4.945000000     3.806000000
O    -5.347000000     2.626000000     0.047000000
H    -6.089000000     2.900000000     0.587000000
H    -5.748000000     2.231000000    -0.728000000
O     3.249000000     6.095000000    -3.492000000
H     2.518000000     5.484000000    -3.402000000
H     3.685000000     5.829000000    -4.302000000
O     1.067000000    -3.858000000    -6.740000000
H     1.425000000    -4.029000000    -7.612000000
H     1.383000000    -4.585000000    -6.204000000
O    -7.311000000     1.475000000     1.820000000
H    -6.822000000     2.035000000     2.422000000
H    -6.970000000     0.595000000     1.979000000
O    -3.931000000     4.610000000    -1.047000000
H    -4.374000000     3.827000000    -0.722000000
H    -3.022000000     4.338000000    -1.171000000
O     5.155000000    -3.981000000    -1.308000000
H     5.193000000    -3.123000000    -0.885000000
H     4.764000000    -3.808000000    -2.165000000
O     3.656000000     3.240000000     0.314000000
H     3.083000000     3.845000000     0.785000000
H     3.361000000     3.288000000    -0.595000000
O    -4.545000000     0.247000000     1.191000000
H    -4.053000000     0.329000000     2.008000000
H    -4.565000000     1.134000000     0.833000000
O    -4.119000000     4.514000000     2.777000000
H    -4.816000000     4.223000000     2.189000000
H    -4.165000000     3.912000000     3.520000000
O     0.420000000    -6.328000000     0.718000000
H     0.187000000    -7.202000000     1.031000000
H     0.702000000    -5.860000000     1.504000000
O    -3.941000000    -0.337000000    -1.779000000
H    -3.017000000    -0.503000000    -1.596000000
H    -4.393000000    -0.580000000    -0.971000000
O     1.225000000    -0.093000000     5.252000000
H     1.044000000     0.713000000     5.736000000
H     2.041000000    -0.421000000     5.629000000
O     5.170000000     0.707000000    -0.351000000
H     4.696000000     1.536000000    -0.281000000
H     6.051000000     0.908000000    -0.033000000
O    -3.421000000    -2.261000000     4.564000000
H    -3.162000000    -1.755000000     3.793000000
H    -3.970000000    -1.662000000     5.070000000
O    -2.345000000    -4.625000000     0.488000000
H    -2.455000000    -4.497000000     1.430000000
H    -2.229000000    -5.569000000     0.387000000
O    -1.718000000     3.091000000     5.044000000
H    -1.773000000     2.494000000     4.298000000
H    -1.112000000     3.776000000     4.758000000
O    -3.193000000     4.765000000     6.368000000
H    -3.317000000     4.314000000     7.204000000
H    -2.639000000     4.174000000     5.858000000
