161
-3071.63407
C     0.170000000     1.371000000     0.709000000
H     0.538000000     2.277000000     1.183000000
C     0.788000000     0.972000000    -0.493000000
H     1.594000000     1.589000000    -0.882000000
C     0.548000000    -0.269000000    -1.089000000
C     1.251000000    -0.693000000    -2.345000000
H     2.192000000    -1.144000000    -2.024000000
H     0.756000000    -1.548000000    -2.811000000
H     1.401000000     0.180000000    -2.984000000
C    -0.400000000    -1.096000000    -0.546000000
H    -0.486000000    -2.125000000    -0.885000000
C    -1.078000000    -0.745000000     0.654000000
H    -1.717000000    -1.496000000     1.113000000
C    -0.770000000     0.476000000     1.294000000
C    -1.364000000     0.649000000     2.684000000
O    -2.145000000    -0.127000000     3.227000000
O    -1.276000000     1.726000000     3.197000000
O     0.739000000    -3.336000000     4.176000000
H    -0.161000000    -3.065000000     4.356000000
H     1.246000000    -2.525000000     4.213000000
O     3.143000000    -0.530000000     0.492000000
H     3.667000000     0.272000000     0.497000000
H     2.331000000    -0.283000000     0.050000000
O     4.205000000    -4.398000000    -5.688000000
H     3.713000000    -4.136000000    -4.911000000
H     5.092000000    -4.071000000    -5.532000000
O    -1.704000000    -0.393000000    -4.255000000
H    -0.909000000     0.098000000    -4.050000000
H    -1.388000000    -1.224000000    -4.609000000
O    -1.988000000     1.268000000     7.696000000
H    -2.133000000     1.591000000     6.807000000
H    -2.197000000     2.014000000     8.259000000
O    -0.238000000    -2.491000000    -5.722000000
H    -0.118000000    -3.289000000    -5.208000000
H    -0.817000000    -2.752000000    -6.439000000
O    -2.477000000     4.032000000     0.370000000
H    -2.516000000     4.056000000    -0.586000000
H    -1.542000000     4.040000000     0.572000000
O     2.169000000    -3.363000000     0.257000000
H     2.951000000    -3.828000000     0.554000000
H     2.309000000    -2.457000000     0.533000000
O     4.658000000    -2.058000000    -2.985000000
H     5.573000000    -2.333000000    -3.050000000
H     4.368000000    -1.974000000    -3.893000000
O    -3.834000000     0.698000000    -0.102000000
H    -4.540000000     0.804000000     0.535000000
H    -3.033000000     0.738000000     0.419000000
O    -5.155000000    -2.021000000     5.585000000
H    -5.491000000    -1.222000000     5.990000000
H    -5.926000000    -2.439000000     5.202000000
O    -0.353000000     4.177000000     2.610000000
H    -0.292000000     3.223000000     2.672000000
H    -0.773000000     4.444000000     3.428000000
O     3.148000000     1.992000000     2.671000000
H     2.830000000     2.315000000     1.827000000
H     3.744000000     2.675000000     2.980000000
O    -2.673000000    -4.139000000     1.304000000
H    -3.027000000    -3.879000000     2.155000000
H    -2.029000000    -4.817000000     1.510000000
O     0.255000000    -4.416000000    -3.605000000
H     1.134000000    -4.415000000    -3.225000000
H    -0.329000000    -4.544000000    -2.858000000
O     1.012000000     6.237000000     1.178000000
H     0.293000000     6.862000000     1.092000000
H     0.643000000     5.515000000     1.687000000
O     0.299000000    -5.270000000     1.013000000
H     0.877000000    -4.624000000     0.607000000
H     0.577000000    -5.298000000     1.929000000
O     2.656000000    -3.995000000    -2.235000000
H     3.473000000    -3.520000000    -2.082000000
H     2.189000000    -3.945000000    -1.401000000
O    -1.166000000    -4.746000000    -1.416000000
H    -0.837000000    -4.731000000    -0.517000000
H    -1.952000000    -4.200000000    -1.393000000
O    -1.042000000    -0.964000000     5.564000000
H    -1.483000000    -0.636000000     4.780000000
H    -0.411000000    -0.280000000     5.787000000
O    -4.568000000     1.324000000     3.293000000
H    -5.164000000     1.214000000     4.034000000
H    -3.769000000     0.869000000     3.559000000
O     0.973000000     1.527000000     4.641000000
H     0.143000000     1.722000000     4.207000000
H     1.624000000     1.566000000     3.940000000
O    -1.436000000     5.171000000     5.348000000
H    -0.668000000     4.870000000     5.832000000
H    -1.773000000     5.904000000     5.864000000
O     1.086000000    -0.008000000    -5.527000000
H     1.818000000     0.427000000    -5.089000000
H     1.063000000    -0.884000000    -5.141000000
O     3.598000000     0.257000000     4.747000000
H     3.926000000     0.679000000     5.541000000
H     3.572000000     0.959000000     4.096000000
O    -3.005000000    -2.502000000     7.050000000
H    -3.719000000    -2.423000000     6.418000000
H    -2.384000000    -1.819000000     6.797000000
O    -5.140000000    -2.474000000     0.798000000
H    -4.731000000    -2.230000000     1.628000000
H    -4.441000000    -2.905000000     0.305000000
O     2.007000000     4.482000000    -4.357000000
H     1.223000000     4.859000000    -3.959000000
H     1.673000000     3.872000000    -5.015000000
O    -2.434000000     3.282000000    -2.368000000
H    -3.219000000     3.609000000    -2.807000000
H    -2.577000000     2.338000000    -2.295000000
O    -1.415000000     1.086000000    -6.907000000
H    -0.963000000     0.517000000    -6.285000000
H    -2.025000000     0.506000000    -7.363000000
O     3.048000000     1.244000000    -4.598000000
H     3.437000000     1.874000000    -5.204000000
H     3.709000000     1.128000000    -3.916000000
O     4.694000000     3.441000000    -3.330000000
H     3.913000000     3.699000000    -3.820000000
H     4.454000000     3.567000000    -2.412000000
O     3.487000000     5.170000000     2.361000000
H     4.068000000     5.927000000     2.433000000
H     2.670000000     5.526000000     2.013000000
O     3.784000000    -1.151000000    -5.449000000
H     4.088000000    -1.300000000    -6.345000000
H     3.798000000    -0.199000000    -5.347000000
O     4.849000000     0.574000000    -2.550000000
H     4.782000000     0.893000000    -1.650000000
H     4.721000000    -0.372000000    -2.478000000
O    -5.278000000    -1.012000000    -1.857000000
H    -5.907000000    -1.341000000    -1.215000000
H    -4.775000000    -0.350000000    -1.383000000
O    -3.982000000     6.332000000     3.550000000
H    -4.030000000     6.774000000     2.702000000
H    -3.625000000     5.466000000     3.348000000
O    -6.145000000     0.941000000     1.166000000
H    -6.571000000     1.788000000     1.295000000
H    -5.862000000     0.679000000     2.042000000
O     3.674000000     4.410000000    -0.472000000
H     3.135000000     4.965000000     0.092000000
H     4.455000000     4.934000000    -0.648000000
O    -3.696000000     1.219000000    -3.671000000
H    -3.796000000     1.737000000    -4.469000000
H    -3.034000000     0.564000000    -3.892000000
O     0.943000000     3.771000000     6.258000000
H     1.562000000     3.657000000     6.979000000
H     0.874000000     2.903000000     5.861000000
O    -3.939000000     3.947000000     2.641000000
H    -3.843000000     3.042000000     2.937000000
H    -3.618000000     3.940000000     1.740000000
O     0.837000000     2.921000000    -6.556000000
H     1.565000000     2.793000000    -7.165000000
H     0.518000000     2.036000000    -6.376000000
O    -2.937000000    -2.341000000    -2.319000000
H    -2.429000000    -1.534000000    -2.240000000
H    -3.849000000    -2.053000000    -2.304000000
O     2.638000000    -1.787000000     2.950000000
H     3.289000000    -1.296000000     3.452000000
H     2.532000000    -1.286000000     2.141000000
O     4.892000000     1.549000000    -0.201000000
H     4.565000000     2.422000000    -0.418000000
H     5.814000000     1.686000000     0.017000000
O    -3.956000000    -1.774000000     3.103000000
H    -3.270000000    -1.109000000     3.168000000
H    -4.250000000    -1.904000000     4.005000000
O    -2.421000000     2.543000000     5.395000000
H    -1.973000000     2.226000000     4.611000000
H    -2.429000000     3.496000000     5.297000000
