161
-3041.20289
C     0.450000000     0.025000000     1.374000000
H     0.892000000     0.094000000     2.364000000
C     0.914000000     0.855000000     0.360000000
H     1.611000000     1.650000000     0.613000000
C     0.560000000     0.655000000    -0.955000000
C     0.926000000     1.542000000    -2.073000000
H     1.007000000     1.049000000    -3.044000000
H     0.218000000     2.369000000    -2.159000000
H     1.942000000     1.900000000    -1.896000000
C    -0.427000000    -0.345000000    -1.173000000
H    -0.845000000    -0.486000000    -2.166000000
C    -0.952000000    -1.130000000    -0.108000000
H    -1.659000000    -1.935000000    -0.289000000
C    -0.445000000    -1.029000000     1.180000000
C    -1.144000000    -1.688000000     2.327000000
O    -2.316000000    -2.036000000     2.178000000
O    -0.725000000    -1.497000000     3.471000000
O    -4.203000000    -3.946000000     1.974000000
H    -3.813000000    -3.168000000     2.373000000
H    -3.946000000    -4.666000000     2.551000000
O     0.864000000     5.806000000    -2.477000000
H     0.882000000     6.452000000    -1.772000000
H     1.781000000     5.560000000    -2.600000000
O     3.441000000    -0.051000000    -5.926000000
H     3.952000000    -0.822000000    -6.175000000
H     2.688000000    -0.405000000    -5.453000000
O    -0.964000000    -4.111000000     6.843000000
H    -0.313000000    -3.591000000     7.313000000
H    -1.395000000    -4.628000000     7.524000000
O    -1.278000000     2.229000000    -6.015000000
H    -1.296000000     3.182000000    -5.931000000
H    -1.609000000     2.059000000    -6.897000000
O     1.149000000    -1.377000000    -5.353000000
H     0.288000000    -1.194000000    -5.730000000
H     0.973000000    -1.998000000    -4.646000000
O    -1.293000000     3.322000000     0.528000000
H    -2.048000000     3.051000000     1.051000000
H    -0.651000000     2.624000000     0.654000000
O     0.757000000     2.770000000     4.837000000
H     1.146000000     3.392000000     5.452000000
H     1.455000000     2.140000000     4.659000000
O     4.423000000     1.475000000    -0.960000000
H     3.891000000     1.048000000    -1.632000000
H     5.326000000     1.307000000    -1.227000000
O    -4.126000000    -1.713000000     3.958000000
H    -3.288000000    -1.845000000     3.515000000
H    -4.066000000    -0.832000000     4.327000000
O    -1.655000000     6.053000000     0.073000000
H    -1.557000000     5.203000000     0.502000000
H    -0.784000000     6.447000000     0.120000000
O    -3.446000000     2.920000000     2.451000000
H    -3.251000000     3.533000000     3.160000000
H    -3.213000000     2.062000000     2.805000000
O     4.821000000     0.815000000    -3.563000000
H     5.445000000     1.482000000    -3.851000000
H     4.376000000     0.542000000    -4.365000000
O     3.374000000     6.369000000    -0.179000000
H     4.329000000     6.388000000    -0.125000000
H     3.134000000     5.496000000     0.131000000
O     1.026000000     4.880000000     1.038000000
H     1.833000000     4.366000000     1.073000000
H     0.330000000     4.228000000     0.962000000
O    -0.753000000    -3.545000000    -5.061000000
H    -1.571000000    -3.091000000    -4.862000000
H    -0.956000000    -4.079000000    -5.829000000
O    -1.701000000     1.496000000     4.019000000
H    -1.304000000     0.630000000     3.922000000
H    -0.969000000     2.071000000     4.242000000
O     3.405000000     3.828000000     1.269000000
H     3.944000000     3.065000000     1.056000000
H     3.597000000     4.007000000     2.190000000
O    -6.076000000    -4.115000000    -1.484000000
H    -5.248000000    -4.294000000    -1.040000000
H    -5.878000000    -3.391000000    -2.078000000
O     0.305000000    -1.126000000     7.940000000
H    -0.028000000    -0.234000000     7.848000000
H     1.225000000    -1.016000000     8.180000000
O     1.254000000     1.664000000    -7.475000000
H     0.471000000     1.139000000    -7.648000000
H     1.609000000     1.303000000    -6.663000000
O    -0.633000000    -6.675000000     2.269000000
H    -1.042000000    -7.536000000     2.355000000
H    -1.223000000    -6.083000000     2.735000000
O     3.682000000     0.344000000     4.404000000
H     2.790000000     0.101000000     4.653000000
H     3.602000000     0.658000000     3.503000000
O     3.687000000     4.228000000    -2.516000000
H     4.358000000     4.838000000    -2.211000000
H     3.734000000     3.494000000    -1.904000000
O    -3.396000000    -4.128000000    -0.658000000
H    -2.574000000    -4.455000000    -0.291000000
H    -3.684000000    -3.457000000    -0.040000000
O    -1.257000000    -4.105000000     3.976000000
H    -1.505000000    -3.214000000     3.729000000
H    -0.878000000    -4.016000000     4.850000000
O    -2.545000000     0.130000000    -4.345000000
H    -2.814000000     0.266000000    -3.437000000
H    -1.953000000     0.859000000    -4.532000000
O    -3.950000000     0.476000000    -1.827000000
H    -3.610000000    -0.124000000    -1.164000000
H    -4.900000000     0.361000000    -1.789000000
O     0.696000000    -3.418000000    -1.794000000
H     0.133000000    -4.032000000    -2.266000000
H     0.142000000    -2.651000000    -1.648000000
O     3.567000000     5.101000000    -5.720000000
H     3.660000000     5.753000000    -5.025000000
H     3.726000000     4.263000000    -5.285000000
O     2.000000000     6.275000000     3.421000000
H     1.599000000     5.760000000     2.720000000
H     1.340000000     6.932000000     3.643000000
O    -3.891000000    -4.736000000     4.952000000
H    -4.009000000    -4.334000000     5.812000000
H    -2.949000000    -4.893000000     4.887000000
O    -0.890000000    -5.607000000    -0.079000000
H    -0.891000000    -6.080000000     0.753000000
H    -0.103000000    -5.063000000    -0.045000000
O    -3.180000000    -2.751000000    -3.799000000
H    -2.785000000    -2.352000000    -3.024000000
H    -4.107000000    -2.519000000    -3.741000000
O     3.689000000    -3.883000000    -1.689000000
H     4.128000000    -3.070000000    -1.436000000
H     2.757000000    -3.669000000    -1.663000000
O    -4.030000000     0.776000000     5.163000000
H    -4.133000000     1.121000000     6.050000000
H    -3.244000000     1.205000000     4.828000000
O    -3.134000000    -6.414000000    -2.392000000
H    -3.506000000    -6.176000000    -1.542000000
H    -2.670000000    -5.628000000    -2.679000000
O    -3.961000000     3.315000000    -2.157000000
H    -3.766000000     2.418000000    -1.887000000
H    -3.103000000     3.730000000    -2.248000000
O    -6.650000000    -1.917000000     3.102000000
H    -5.702000000    -1.910000000     3.239000000
H    -6.833000000    -2.783000000     2.737000000
O    -6.857000000    -4.418000000     2.079000000
H    -5.963000000    -4.354000000     1.744000000
H    -7.105000000    -5.330000000     1.926000000
O    -1.219000000    -0.909000000    -6.371000000
H    -1.749000000    -1.412000000    -6.989000000
H    -1.856000000    -0.500000000    -5.785000000
O     1.118000000    -0.280000000     4.779000000
H     0.560000000    -0.811000000     4.210000000
H     0.787000000    -0.447000000     5.661000000
O     3.632000000    -3.434000000     5.764000000
H     4.313000000    -3.887000000     5.266000000
H     2.978000000    -3.191000000     5.108000000
O    -4.021000000    -1.022000000     0.494000000
H    -4.790000000    -0.731000000     0.985000000
H    -3.530000000    -1.560000000     1.115000000
O     1.872000000    -3.293000000     3.697000000
H     2.123000000    -3.413000000     2.781000000
H     0.915000000    -3.266000000     3.681000000
O     2.276000000    -3.208000000     1.143000000
H     2.044000000    -2.825000000     0.297000000
H     3.201000000    -2.992000000     1.258000000
O     4.467000000     1.191000000     1.908000000
H     4.636000000     0.991000000     0.987000000
H     5.116000000     1.858000000     2.132000000
O    -1.912000000     5.276000000    -2.691000000
H    -0.984000000     5.219000000    -2.915000000
H    -1.921000000     5.467000000    -1.753000000
