161
-3018.94511
C     0.925000000     0.903000000     0.836000000
H     1.656000000     1.401000000     1.468000000
C     1.275000000     0.409000000    -0.475000000
H     2.202000000     0.551000000    -1.024000000
C     0.353000000    -0.486000000    -1.067000000
C     0.616000000    -1.182000000    -2.397000000
H     1.590000000    -0.863000000    -2.775000000
H     0.531000000    -2.257000000    -2.226000000
H    -0.147000000    -0.885000000    -3.119000000
C    -0.919000000    -0.644000000    -0.579000000
H    -1.611000000    -1.270000000    -1.137000000
C    -1.261000000    -0.118000000     0.683000000
H    -2.252000000    -0.372000000     1.049000000
C    -0.357000000     0.655000000     1.430000000
C    -0.744000000     1.216000000     2.756000000
O    -1.870000000     0.960000000     3.299000000
O     0.016000000     1.975000000     3.276000000
O    -2.577000000    -0.590000000     5.138000000
H    -2.225000000     0.042000000     4.511000000
H    -2.792000000    -1.358000000     4.608000000
O     1.943000000     4.089000000    -1.412000000
H     2.246000000     4.323000000    -0.535000000
H     2.648000000     3.552000000    -1.774000000
O     0.964000000    -2.079000000    -5.975000000
H     0.422000000    -2.317000000    -5.223000000
H     0.699000000    -2.690000000    -6.663000000
O     2.588000000     2.174000000    -6.710000000
H     1.901000000     2.062000000    -7.367000000
H     2.378000000     1.532000000    -6.032000000
O    -2.087000000     5.160000000     3.608000000
H    -1.307000000     4.826000000     3.164000000
H    -1.761000000     5.863000000     4.170000000
O     5.615000000    -0.970000000    -0.379000000
H     5.136000000    -1.732000000    -0.054000000
H     5.184000000    -0.750000000    -1.205000000
O     4.146000000     1.495000000     2.999000000
H     4.916000000     1.968000000     3.316000000
H     4.262000000     1.459000000     2.049000000
O     4.613000000     1.413000000     0.416000000
H     4.475000000     2.002000000    -0.325000000
H     5.072000000     0.661000000     0.042000000
O    -0.875000000     4.371000000    -1.078000000
H     0.019000000     4.062000000    -1.220000000
H    -0.775000000     5.291000000    -0.831000000
O     4.520000000    -0.946000000    -2.990000000
H     3.649000000    -1.310000000    -3.151000000
H     5.111000000    -1.695000000    -3.068000000
O    -2.051000000    -3.315000000    -4.490000000
H    -2.495000000    -3.444000000    -5.328000000
H    -2.696000000    -2.868000000    -3.943000000
O    -3.912000000    -3.199000000     0.426000000
H    -2.981000000    -3.415000000     0.481000000
H    -4.252000000    -3.381000000     1.302000000
O    -3.121000000    -2.877000000     3.898000000
H    -3.216000000    -3.699000000     4.378000000
H    -2.309000000    -2.981000000     3.402000000
O     1.086000000    -5.218000000     0.514000000
H     1.029000000    -6.148000000     0.295000000
H     1.987000000    -4.976000000     0.300000000
O     0.450000000     4.324000000     2.293000000
H     0.207000000     3.439000000     2.565000000
H     1.219000000     4.202000000     1.737000000
O     0.862000000     2.685000000     7.011000000
H     0.012000000     2.751000000     6.576000000
H     1.500000000     2.816000000     6.310000000
O    -5.741000000    -0.928000000     0.598000000
H    -5.320000000    -0.487000000     1.336000000
H    -5.489000000    -0.408000000    -0.166000000
O    -5.754000000    -2.456000000     3.436000000
H    -4.911000000    -2.222000000     3.825000000
H    -5.803000000    -1.930000000     2.638000000
O     4.293000000     4.640000000     4.778000000
H     5.123000000     4.263000000     4.486000000
H     3.762000000     3.885000000     5.029000000
O    -1.529000000     1.569000000    -4.830000000
H    -1.704000000     1.867000000    -3.937000000
H    -2.250000000     0.973000000    -5.030000000
O    -5.849000000     2.388000000    -0.109000000
H    -5.272000000     1.989000000     0.542000000
H    -6.111000000     3.221000000     0.281000000
O    -3.715000000    -2.360000000    -2.311000000
H    -3.981000000    -2.543000000    -1.410000000
H    -3.973000000    -1.450000000    -2.456000000
O    -1.504000000     2.941000000     5.459000000
H    -1.349000000     2.307000000     4.759000000
H    -1.844000000     3.715000000     5.009000000
O    -2.013000000     1.875000000    -2.244000000
H    -1.668000000     2.654000000    -1.807000000
H    -1.479000000     1.156000000    -1.908000000
O     0.671000000    -5.978000000    -2.616000000
H     0.777000000    -6.188000000    -1.688000000
H     1.476000000    -5.517000000    -2.851000000
O    -0.617000000    -5.571000000    -4.793000000
H     0.033000000    -5.633000000    -4.093000000
H    -1.098000000    -4.766000000    -4.602000000
O     4.545000000     2.798000000    -2.052000000
H     4.662000000     2.083000000    -2.677000000
H     4.720000000     3.591000000    -2.560000000
O    -1.303000000    -4.238000000     0.400000000
H    -1.281000000    -4.941000000    -0.250000000
H    -0.453000000    -4.289000000     0.837000000
O     4.154000000    -3.000000000     0.425000000
H     4.225000000    -3.931000000     0.214000000
H     3.214000000    -2.850000000     0.533000000
O    -4.323000000     0.405000000    -1.737000000
H    -3.568000000     0.989000000    -1.814000000
H    -5.070000000     0.993000000    -1.626000000
O     3.558000000    -2.704000000    -5.500000000
H     3.959000000    -1.939000000    -5.914000000
H     2.618000000    -2.525000000    -5.526000000
O    -4.214000000     0.191000000    -5.176000000
H    -4.871000000     0.188000000    -5.872000000
H    -4.499000000    -0.498000000    -4.575000000
O    -4.202000000    -5.816000000    -0.818000000
H    -4.093000000    -4.935000000    -0.459000000
H    -4.198000000    -6.389000000    -0.051000000
O     2.816000000    -4.645000000    -3.864000000
H     3.194000000    -3.872000000    -4.284000000
H     3.572000000    -5.146000000    -3.560000000
O    -5.576000000     0.379000000     4.815000000
H    -6.188000000     0.070000000     5.483000000
H    -4.720000000     0.355000000     5.245000000
O     2.546000000     2.308000000     4.992000000
H     1.784000000     2.128000000     4.441000000
H     3.259000000     1.818000000     4.583000000
O    -5.044000000     4.650000000     5.052000000
H    -5.737000000     5.239000000     4.755000000
H    -4.699000000     4.262000000     4.247000000
O    -2.246000000     2.322000000     8.580000000
H    -2.789000000     2.999000000     8.985000000
H    -2.440000000     2.388000000     7.645000000
O     5.995000000     1.179000000    -4.289000000
H     5.759000000     0.309000000    -3.968000000
H     6.894000000     1.083000000    -4.603000000
O     0.086000000    -0.290000000     6.383000000
H    -0.841000000    -0.304000000     6.145000000
H     0.398000000     0.562000000     6.077000000
O     1.400000000    -2.031000000     1.241000000
H     0.450000000    -2.001000000     1.131000000
H     1.688000000    -1.132000000     1.080000000
O    -3.785000000    -0.799000000     7.697000000
H    -3.708000000    -1.747000000     7.593000000
H    -3.248000000    -0.436000000     6.992000000
O     1.493000000     0.395000000    -5.094000000
H     1.349000000    -0.430000000    -5.557000000
H     0.880000000     0.367000000    -4.359000000
O    -4.815000000    -4.580000000    -3.766000000
H    -4.393000000    -3.818000000    -3.370000000
H    -5.123000000    -5.097000000    -3.022000000
O    -0.068000000     7.034000000     1.926000000
H     0.837000000     7.337000000     1.859000000
H     0.003000000     6.085000000     2.028000000
O     4.686000000    -1.088000000     3.344000000
H     4.174000000    -0.318000000     3.098000000
H     4.627000000    -1.119000000     4.299000000
O    -4.397000000     0.843000000     2.338000000
H    -3.533000000     1.059000000     2.689000000
H    -4.979000000     0.875000000     3.097000000
O     2.713000000     5.117000000     0.999000000
H     2.694000000     6.073000000     1.045000000
H     3.466000000     4.867000000     1.534000000
