161
-3049.82094
C    -0.180000000     1.438000000    -0.226000000
H    -0.249000000     2.494000000    -0.475000000
C     0.144000000     0.475000000    -1.195000000
H     0.308000000     0.823000000    -2.211000000
C     0.144000000    -0.884000000    -0.859000000
C     0.468000000    -1.871000000    -1.970000000
H    -0.404000000    -2.087000000    -2.590000000
H     1.178000000    -1.503000000    -2.713000000
H     0.831000000    -2.790000000    -1.505000000
C     0.026000000    -1.237000000     0.476000000
H     0.267000000    -2.243000000     0.808000000
C    -0.134000000    -0.323000000     1.491000000
H    -0.121000000    -0.544000000     2.555000000
C    -0.280000000     1.055000000     1.110000000
C    -0.479000000     2.166000000     2.169000000
O    -0.431000000     1.845000000     3.384000000
O    -1.089000000     3.191000000     1.755000000
O    -1.925000000    -2.873000000     4.513000000
H    -2.253000000    -2.221000000     3.894000000
H    -0.975000000    -2.755000000     4.506000000
O     3.004000000     5.670000000     4.256000000
H     2.343000000     5.250000000     3.705000000
H     2.553000000     5.840000000     5.083000000
O     3.291000000     0.652000000     1.790000000
H     3.460000000    -0.280000000     1.651000000
H     3.774000000     0.867000000     2.587000000
O     0.165000000    -7.050000000     2.285000000
H     0.053000000    -6.263000000     1.752000000
H    -0.242000000    -7.747000000     1.772000000
O    -1.637000000     7.787000000    -1.085000000
H    -1.283000000     8.016000000    -0.226000000
H    -1.985000000     6.902000000    -0.973000000
O     4.110000000    -2.318000000    -5.796000000
H     4.828000000    -2.905000000    -5.561000000
H     3.922000000    -1.836000000    -4.991000000
O     1.865000000    -8.080000000    -0.076000000
H     2.060000000    -7.191000000    -0.371000000
H     1.683000000    -8.565000000    -0.881000000
O     0.210000000    -2.963000000    -5.262000000
H    -0.710000000    -3.065000000    -5.017000000
H     0.363000000    -2.018000000    -5.230000000
O    -2.373000000    -4.522000000    -0.368000000
H    -2.924000000    -4.680000000     0.399000000
H    -2.411000000    -3.575000000    -0.500000000
O     0.594000000    -1.906000000     4.389000000
H     1.100000000    -1.136000000     4.646000000
H     1.146000000    -2.353000000     3.747000000
O    -0.737000000     8.074000000     1.497000000
H    -0.746000000     9.019000000     1.647000000
H     0.181000000     7.824000000     1.602000000
O     3.959000000     3.853000000     0.723000000
H     3.010000000     3.957000000     0.790000000
H     4.101000000     2.908000000     0.783000000
O    -3.354000000    -1.167000000     2.979000000
H    -4.236000000    -0.869000000     2.755000000
H    -2.804000000    -0.392000000     2.864000000
O     1.291000000     4.687000000    -2.236000000
H     1.414000000     5.625000000    -2.385000000
H     1.461000000     4.568000000    -1.302000000
O     1.562000000     3.214000000     6.064000000
H     1.087000000     3.385000000     6.877000000
H     0.981000000     3.537000000     5.375000000
O    -0.467000000     3.266000000    -3.952000000
H     0.108000000     3.603000000    -3.265000000
H    -1.350000000     3.380000000    -3.602000000
O     2.932000000     2.526000000    -2.841000000
H     3.071000000     2.763000000    -3.758000000
H     2.295000000     3.166000000    -2.523000000
O    -3.273000000     0.816000000     0.148000000
H    -2.450000000     1.104000000    -0.246000000
H    -3.379000000     1.375000000     0.918000000
O     0.309000000    -4.955000000    -0.370000000
H     0.670000000    -4.857000000    -1.251000000
H    -0.635000000    -4.843000000    -0.484000000
O    -1.442000000     1.148000000     5.792000000
H    -1.051000000     1.317000000     4.935000000
H    -2.378000000     1.302000000     5.663000000
O    -2.874000000     3.567000000    -2.740000000
H    -3.743000000     3.750000000    -3.098000000
H    -2.729000000     4.260000000    -2.096000000
O     4.227000000    -4.378000000    -3.408000000
H     4.599000000    -4.690000000    -2.583000000
H     4.931000000    -4.493000000    -4.047000000
O     3.842000000    -0.959000000    -3.499000000
H     3.862000000    -1.836000000    -3.117000000
H     3.761000000    -0.372000000    -2.747000000
O     1.474000000    -4.861000000    -3.298000000
H     2.393000000    -4.823000000    -3.561000000
H     1.032000000    -4.244000000    -3.881000000
O     3.253000000    -3.529000000     3.566000000
H     2.923000000    -3.919000000     2.757000000
H     2.970000000    -4.132000000     4.255000000
O     0.204000000    -1.118000000     7.510000000
H    -0.561000000    -0.553000000     7.403000000
H     0.174000000    -1.706000000     6.755000000
O    -2.400000000    -4.012000000    -3.979000000
H    -2.264000000    -4.910000000    -3.675000000
H    -2.866000000    -4.109000000    -4.810000000
O     5.406000000    -1.448000000    -1.123000000
H     4.831000000    -0.707000000    -0.933000000
H     5.471000000    -1.921000000    -0.293000000
O    -2.841000000    -1.768000000    -0.645000000
H    -2.864000000    -1.033000000    -0.032000000
H    -2.461000000    -1.402000000    -1.444000000
O     2.393000000    -4.565000000     1.283000000
H     3.058000000    -5.111000000     0.864000000
H     1.591000000    -4.746000000     0.793000000
O     0.486000000    -7.478000000    -2.801000000
H     0.718000000    -6.550000000    -2.834000000
H     1.312000000    -7.938000000    -2.953000000
O     5.398000000     0.955000000    -5.037000000
H     4.888000000     0.189000000    -4.775000000
H     6.067000000     1.042000000    -4.359000000
O    -4.366000000     1.067000000    -3.364000000
H    -3.677000000     1.600000000    -2.968000000
H    -4.007000000     0.180000000    -3.373000000
O    -0.791000000     2.754000000    -6.604000000
H    -0.034000000     2.167000000    -6.609000000
H    -0.932000000     2.954000000    -5.679000000
O    -4.070000000     1.884000000     5.444000000
H    -4.277000000     2.818000000     5.425000000
H    -4.654000000     1.522000000     6.110000000
O     1.640000000     0.663000000     4.686000000
H     0.957000000     1.053000000     4.141000000
H     1.852000000     1.341000000     5.328000000
O    -0.217000000     4.117000000     8.163000000
H    -0.745000000     4.795000000     8.586000000
H    -0.858000000     3.525000000     7.770000000
O    -3.242000000     5.535000000    -0.861000000
H    -3.105000000     5.175000000     0.015000000
H    -4.131000000     5.888000000    -0.838000000
O     0.446000000     4.835000000     3.592000000
H    -0.176000000     5.557000000     3.680000000
H     0.004000000     4.205000000     3.023000000
O     3.490000000     0.443000000    -1.333000000
H     3.089000000     0.611000000    -0.480000000
H     3.516000000     1.300000000    -1.759000000
O     3.542000000    -2.018000000     1.048000000
H     3.707000000    -2.939000000     1.253000000
H     2.685000000    -2.018000000     0.622000000
O    -3.254000000    -1.461000000    -3.372000000
H    -2.614000000    -2.173000000    -3.389000000
H    -4.055000000    -1.851000000    -3.723000000
O     1.344000000     4.481000000     0.448000000
H     1.529000000     5.347000000     0.812000000
H     0.433000000     4.311000000     0.687000000
O     0.439000000    -0.048000000    -4.923000000
H     0.450000000     0.652000000    -4.271000000
H     0.537000000     0.403000000    -5.761000000
O    -3.303000000    -6.271000000    -2.684000000
H    -3.083000000    -5.596000000    -2.042000000
H    -3.228000000    -7.094000000    -2.201000000
O    -3.361000000     4.347000000     1.448000000
H    -3.974000000     3.843000000     1.984000000
H    -2.507000000     3.955000000     1.628000000
O    -3.363000000     1.841000000     2.760000000
H    -2.432000000     2.055000000     2.697000000
H    -3.558000000     1.893000000     3.696000000
O     2.284000000     3.300000000    -5.448000000
H     2.431000000     2.529000000    -5.995000000
H     1.332000000     3.370000000    -5.384000000
