161
-3033.75468
C    -0.290000000     1.453000000    -0.339000000
H    -0.496000000     2.459000000    -0.697000000
C     0.162000000     0.442000000    -1.211000000
H     0.395000000     0.765000000    -2.222000000
C     0.300000000    -0.851000000    -0.815000000
C     0.836000000    -1.982000000    -1.713000000
H     0.080000000    -2.346000000    -2.411000000
H     1.593000000    -1.562000000    -2.379000000
H     1.153000000    -2.883000000    -1.183000000
C     0.083000000    -1.181000000     0.511000000
H     0.071000000    -2.237000000     0.766000000
C    -0.271000000    -0.171000000     1.401000000
H    -0.485000000    -0.455000000     2.429000000
C    -0.465000000     1.157000000     1.000000000
C    -0.822000000     2.159000000     2.004000000
O    -0.899000000     1.902000000     3.212000000
O    -0.944000000     3.327000000     1.648000000
O    -0.480000000    -3.502000000     3.449000000
H    -0.488000000    -2.888000000     4.183000000
H     0.448000000    -3.640000000     3.261000000
O    -3.290000000     3.746000000    -1.036000000
H    -2.418000000     4.095000000    -0.849000000
H    -3.614000000     4.285000000    -1.758000000
O    -0.018000000    -4.527000000    -6.957000000
H     0.252000000    -5.384000000    -6.626000000
H    -0.046000000    -3.968000000    -6.181000000
O     2.609000000    -2.347000000    -5.746000000
H     2.130000000    -2.004000000    -6.501000000
H     1.974000000    -2.325000000    -5.030000000
O     5.662000000    -0.805000000    -4.137000000
H     5.580000000    -1.615000000    -3.635000000
H     6.327000000    -0.300000000    -3.669000000
O     1.432000000    -6.500000000     3.141000000
H     1.276000000    -6.200000000     2.246000000
H     2.202000000    -6.010000000     3.428000000
O    -0.054000000    -2.870000000    -4.829000000
H    -0.996000000    -2.981000000    -4.705000000
H     0.062000000    -1.929000000    -4.960000000
O    -2.873000000    -5.796000000     1.333000000
H    -2.526000000    -6.300000000     2.069000000
H    -2.693000000    -4.884000000     1.560000000
O     1.161000000    -1.936000000     5.001000000
H     1.099000000    -2.103000000     5.942000000
H     2.034000000    -2.243000000     4.760000000
O    -3.494000000     6.786000000     1.259000000
H    -3.132000000     7.573000000     1.666000000
H    -2.863000000     6.096000000     1.468000000
O     2.918000000     3.102000000     3.120000000
H     2.189000000     2.999000000     2.508000000
H     2.503000000     3.141000000     3.982000000
O    -2.811000000    -1.378000000     5.937000000
H    -2.873000000    -2.327000000     5.828000000
H    -2.585000000    -1.052000000     5.066000000
O    -0.370000000     6.555000000     2.547000000
H    -0.426000000     5.717000000     3.006000000
H     0.304000000     7.043000000     3.021000000
O     2.188000000     3.775000000    -1.697000000
H     2.543000000     4.649000000    -1.860000000
H     1.903000000     3.799000000    -0.783000000
O    -0.719000000     5.216000000    -1.240000000
H    -0.532000000     5.227000000    -0.302000000
H    -0.774000000     6.141000000    -1.484000000
O     3.382000000     1.355000000    -1.836000000
H     2.801000000     2.034000000    -1.494000000
H     3.293000000     1.420000000    -2.787000000
O    -4.590000000     1.658000000     3.642000000
H    -5.098000000     2.083000000     4.333000000
H    -4.112000000     2.373000000     3.221000000
O     1.376000000    -5.647000000    -1.106000000
H     1.272000000    -5.710000000    -2.055000000
H     0.672000000    -6.189000000    -0.751000000
O     1.202000000     1.543000000     4.965000000
H     0.512000000     1.982000000     4.468000000
H     1.039000000     0.610000000     4.830000000
O    -3.302000000     0.851000000    -1.654000000
H    -2.926000000     0.405000000    -0.894000000
H    -3.327000000     1.774000000    -1.402000000
O     5.679000000    -3.257000000    -2.789000000
H     5.110000000    -3.955000000    -3.113000000
H     6.018000000    -3.589000000    -1.958000000
O    -5.383000000     3.826000000     0.640000000
H    -4.772000000     4.049000000     1.343000000
H    -4.822000000     3.621000000    -0.108000000
O     2.169000000    -4.582000000    -4.028000000
H     2.914000000    -4.430000000    -4.609000000
H     1.411000000    -4.605000000    -4.613000000
O     0.634000000    -6.742000000    -5.546000000
H     0.606000000    -7.699000000    -5.563000000
H     0.305000000    -6.509000000    -4.677000000
O    -3.630000000     5.219000000     5.055000000
H    -4.484000000     5.366000000     5.461000000
H    -3.006000000     5.281000000     5.778000000
O    -2.509000000    -4.937000000    -1.555000000
H    -2.446000000    -5.552000000    -0.825000000
H    -3.446000000    -4.885000000    -1.745000000
O    -4.899000000    -2.289000000     0.800000000
H    -4.575000000    -2.127000000    -0.086000000
H    -4.109000000    -2.414000000     1.325000000
O     3.011000000    -3.840000000     1.074000000
H     3.214000000    -4.761000000     1.238000000
H     2.837000000    -3.796000000     0.134000000
O    -0.848000000    -6.576000000    -3.263000000
H    -0.883000000    -5.726000000    -2.824000000
H    -1.337000000    -7.164000000    -2.687000000
O    -1.272000000     5.039000000     6.577000000
H    -0.515000000     5.483000000     6.195000000
H    -1.367000000     5.430000000     7.445000000
O    -1.878000000     1.278000000    -4.094000000
H    -1.568000000     2.103000000    -3.719000000
H    -2.256000000     0.806000000    -3.352000000
O     3.534000000    -7.814000000    -1.476000000
H     3.390000000    -6.886000000    -1.661000000
H     4.320000000    -7.830000000    -0.930000000
O     2.107000000     3.956000000    -4.575000000
H     2.146000000     3.427000000    -3.778000000
H     1.283000000     4.439000000    -4.501000000
O    -0.950000000    -0.036000000     7.571000000
H    -1.180000000     0.892000000     7.535000000
H    -1.738000000    -0.490000000     7.272000000
O    -0.942000000     3.718000000    -3.393000000
H    -1.848000000     4.024000000    -3.441000000
H    -0.625000000     4.041000000    -2.550000000
O    -2.881000000     2.494000000    -6.396000000
H    -3.692000000     2.903000000    -6.093000000
H    -2.577000000     1.981000000    -5.647000000
O    -2.620000000    -2.832000000     2.247000000
H    -2.528000000    -1.931000000     2.557000000
H    -1.813000000    -3.265000000     2.525000000
O     0.081000000     4.249000000     4.243000000
H    -0.569000000     4.353000000     4.938000000
H    -0.319000000     3.631000000     3.631000000
O     4.438000000    -0.635000000     0.079000000
H     3.824000000    -0.881000000     0.771000000
H     3.888000000    -0.249000000    -0.603000000
O    -1.159000000     2.704000000     7.866000000
H    -0.980000000     3.346000000     7.179000000
H    -2.114000000     2.636000000     7.887000000
O     3.597000000    -1.709000000     2.677000000
H     3.229000000    -2.331000000     2.049000000
H     3.802000000    -2.238000000     3.447000000
O    -2.717000000    -2.942000000    -3.610000000
H    -2.328000000    -3.403000000    -2.866000000
H    -3.479000000    -2.495000000    -3.242000000
O     1.244000000     4.419000000     0.868000000
H     1.166000000     5.356000000     1.047000000
H     0.444000000     4.038000000     1.231000000
O    -0.009000000    -0.130000000    -5.672000000
H    -0.167000000     0.072000000    -6.594000000
H    -0.755000000     0.254000000    -5.211000000
O    -1.648000000    -5.963000000     4.322000000
H    -1.025000000    -5.242000000     4.223000000
H    -1.103000000    -6.724000000     4.523000000
O    -3.555000000     4.099000000     2.711000000
H    -3.589000000     4.587000000     3.533000000
H    -2.624000000     3.915000000     2.579000000
O    -2.823000000    -0.330000000     3.374000000
H    -3.663000000     0.130000000     3.390000000
H    -2.168000000     0.366000000     3.417000000
O     3.146000000     0.740000000    -4.521000000
H     3.602000000    -0.101000000    -4.503000000
H     2.253000000     0.523000000    -4.790000000
