161
-3005.66710
C    -1.097000000     0.429000000    -0.836000000
H    -1.811000000     0.506000000    -1.652000000
C    -0.126000000    -0.621000000    -1.138000000
H    -0.158000000    -1.182000000    -2.069000000
C     0.835000000    -0.943000000    -0.142000000
C     1.802000000    -2.088000000    -0.465000000
H     2.612000000    -1.629000000    -1.036000000
H     2.361000000    -2.379000000     0.427000000
H     1.282000000    -2.958000000    -0.871000000
C     0.834000000    -0.149000000     1.009000000
H     1.596000000    -0.342000000     1.761000000
C    -0.042000000     0.920000000     1.209000000
H    -0.034000000     1.399000000     2.184000000
C    -1.038000000     1.256000000     0.278000000
C    -2.085000000     2.291000000     0.429000000
O    -2.462000000     2.700000000     1.497000000
O    -2.463000000     2.782000000    -0.591000000
O     5.344000000    -2.220000000     1.731000000
H     4.520000000    -1.878000000     2.078000000
H     5.336000000    -1.974000000     0.807000000
O    -0.102000000     0.533000000     4.801000000
H    -0.473000000     0.145000000     5.594000000
H     0.101000000    -0.216000000     4.240000000
O     3.231000000    -1.464000000     3.281000000
H     3.165000000    -1.020000000     4.127000000
H     2.411000000    -1.951000000     3.201000000
O     4.725000000    -1.019000000    -3.863000000
H     3.789000000    -0.833000000    -3.938000000
H     4.971000000    -0.669000000    -3.006000000
O     4.996000000    -0.846000000    -0.745000000
H     4.338000000    -0.231000000    -1.067000000
H     5.832000000    -0.465000000    -1.014000000
O    -0.923000000    -3.021000000    -4.999000000
H    -1.036000000    -3.803000000    -5.539000000
H    -0.193000000    -3.233000000    -4.418000000
O    -1.440000000     6.686000000    -2.908000000
H    -2.230000000     6.443000000    -3.391000000
H    -1.491000000     6.182000000    -2.096000000
O     5.265000000    -4.564000000     3.832000000
H     4.919000000    -3.691000000     3.649000000
H     5.439000000    -4.939000000     2.969000000
O     3.522000000    -5.379000000    -2.825000000
H     4.240000000    -4.745000000    -2.830000000
H     3.134000000    -5.294000000    -1.955000000
O    -1.497000000    -2.348000000     1.410000000
H    -1.272000000    -1.555000000     0.924000000
H    -2.267000000    -2.104000000     1.923000000
O     4.230000000     2.233000000    -1.146000000
H     4.530000000     2.835000000    -1.827000000
H     4.012000000     2.798000000    -0.405000000
O    -0.713000000     6.418000000     1.966000000
H    -0.183000000     5.879000000     2.553000000
H    -0.706000000     7.287000000     2.368000000
O    -3.341000000     5.178000000     1.466000000
H    -2.971000000     4.296000000     1.443000000
H    -2.678000000     5.704000000     1.913000000
O     2.027000000     4.298000000    -0.813000000
H     1.118000000     4.235000000    -0.521000000
H     2.541000000     4.278000000    -0.006000000
O     4.579000000    -6.262000000     1.794000000
H     3.693000000    -5.918000000     1.682000000
H     4.759000000    -6.729000000     0.978000000
O    -7.268000000    -0.046000000     2.586000000
H    -6.340000000     0.183000000     2.534000000
H    -7.614000000     0.512000000     3.282000000
O     4.809000000     1.170000000     2.955000000
H     4.521000000     0.340000000     2.575000000
H     4.918000000     0.982000000     3.887000000
O     0.907000000     1.627000000    -2.978000000
H     1.341000000     0.790000000    -3.144000000
H     0.883000000     1.699000000    -2.024000000
O    -4.945000000     1.506000000    -4.483000000
H    -4.198000000     1.861000000    -4.002000000
H    -4.569000000     1.167000000    -5.295000000
O    -5.913000000     4.049000000     3.752000000
H    -6.407000000     3.959000000     2.937000000
H    -5.340000000     3.282000000     3.770000000
O    -1.586000000     3.299000000     4.187000000
H    -1.923000000     2.962000000     3.356000000
H    -0.807000000     2.772000000     4.361000000
O     6.960000000    -5.111000000    -0.711000000
H     6.367000000    -4.544000000    -1.203000000
H     7.499000000    -4.509000000    -0.198000000
O    -3.159000000     2.739000000    -3.042000000
H    -2.787000000     2.847000000    -2.167000000
H    -2.426000000     2.900000000    -3.636000000
O     1.531000000    -3.637000000    -3.865000000
H     1.918000000    -3.693000000    -4.738000000
H     1.983000000    -4.311000000    -3.358000000
O    -3.713000000     5.462000000    -4.051000000
H    -3.987000000     4.545000000    -4.064000000
H    -4.387000000     5.920000000    -4.553000000
O    -7.114000000     3.886000000    -1.387000000
H    -7.063000000     3.038000000    -0.946000000
H    -6.691000000     4.496000000    -0.783000000
O     2.992000000    -0.804000000     6.182000000
H     3.098000000    -1.753000000     6.253000000
H     2.721000000    -0.528000000     7.057000000
O    -2.913000000     6.010000000     4.050000000
H    -3.780000000     6.348000000     4.272000000
H    -3.055000000     5.078000000     3.881000000
O    -2.252000000    -4.190000000    -0.923000000
H    -2.111000000    -3.555000000    -0.221000000
H    -2.405000000    -5.019000000    -0.468000000
O    -5.105000000    -2.459000000     0.601000000
H    -4.379000000    -2.439000000     1.224000000
H    -5.044000000    -1.626000000     0.134000000
O    -0.848000000     3.012000000    -4.724000000
H    -0.342000000     2.420000000    -4.168000000
H    -0.293000000     3.151000000    -5.492000000
O    -5.880000000    -1.209000000    -2.277000000
H    -5.746000000    -0.403000000    -1.779000000
H    -4.996000000    -1.511000000    -2.486000000
O     3.577000000     3.988000000     4.184000000
H     3.231000000     3.183000000     4.568000000
H     4.414000000     4.125000000     4.627000000
O    -3.534000000    -1.652000000     2.834000000
H    -4.161000000    -2.302000000     3.150000000
H    -3.487000000    -1.003000000     3.537000000
O    -5.305000000     6.974000000     1.664000000
H    -5.519000000     7.127000000     2.584000000
H    -4.528000000     6.416000000     1.689000000
O     5.702000000    -3.716000000    -2.874000000
H     5.898000000    -4.297000000    -3.608000000
H     5.523000000    -2.868000000    -3.280000000
O    -0.386000000    -6.201000000    -3.103000000
H     0.230000000    -6.359000000    -2.387000000
H    -0.941000000    -5.488000000    -2.787000000
O     2.324000000     2.136000000     5.623000000
H     2.568000000     1.282000000     5.980000000
H     1.434000000     2.011000000     5.293000000
O     0.035000000    -4.945000000     1.166000000
H    -0.762000000    -5.461000000     1.292000000
H    -0.259000000    -4.035000000     1.212000000
O    -3.150000000    -2.096000000    -2.899000000
H    -2.702000000    -2.355000000    -2.094000000
H    -2.457000000    -2.064000000    -3.560000000
O    -1.035000000     5.315000000    -0.555000000
H    -1.122000000     5.637000000     0.342000000
H    -1.348000000     4.411000000    -0.517000000
O     2.076000000    -6.391000000    -0.395000000
H     1.992000000    -7.173000000     0.151000000
H     1.661000000    -5.696000000     0.117000000
O    -4.937000000     5.599000000    -1.028000000
H    -4.338000000     5.673000000    -0.285000000
H    -4.446000000     5.102000000    -1.682000000
O     1.960000000    -0.611000000    -3.936000000
H     1.763000000    -1.516000000    -4.178000000
H     1.803000000    -0.110000000    -4.737000000
O     0.511000000    -2.044000000     3.650000000
H    -0.236000000    -2.234000000     3.082000000
H     0.520000000    -2.763000000     4.282000000
O    -4.696000000     0.610000000    -0.507000000
H    -5.068000000     0.800000000     0.354000000
H    -3.965000000     1.222000000    -0.593000000
O    -4.704000000     1.401000000     2.361000000
H    -4.368000000     1.184000000     3.231000000
H    -3.960000000     1.800000000     1.910000000
O     3.523000000     3.813000000     1.353000000
H     3.405000000     4.364000000     2.126000000
H     3.553000000     2.920000000     1.698000000
