161
-3041.19730
C    -1.281000000     0.541000000    -0.477000000
H    -2.159000000     0.910000000    -1.001000000
C    -0.729000000    -0.700000000    -0.831000000
H    -1.224000000    -1.299000000    -1.591000000
C     0.471000000    -1.125000000    -0.238000000
C     1.041000000    -2.394000000    -0.699000000
H     1.106000000    -2.363000000    -1.789000000
H     1.981000000    -2.647000000    -0.203000000
H     0.396000000    -3.232000000    -0.426000000
C     1.097000000    -0.340000000     0.691000000
H     2.012000000    -0.677000000     1.171000000
C     0.544000000     0.910000000     1.049000000
H     1.159000000     1.574000000     1.651000000
C    -0.667000000     1.329000000     0.491000000
C    -1.127000000     2.778000000     0.680000000
O    -0.414000000     3.517000000     1.315000000
O    -2.198000000     3.220000000     0.213000000
O     4.031000000    -4.610000000    -1.247000000
H     3.728000000    -5.433000000    -1.631000000
H     4.548000000    -4.875000000    -0.487000000
O     1.234000000    -1.262000000     4.491000000
H     1.656000000    -2.039000000     4.124000000
H     0.303000000    -1.385000000     4.306000000
O     5.780000000    -0.722000000    -3.282000000
H     5.097000000    -0.431000000    -2.679000000
H     6.572000000    -0.277000000    -2.980000000
O     3.659000000    -0.134000000    -1.072000000
H     3.033000000    -0.842000000    -0.922000000
H     3.989000000     0.082000000    -0.200000000
O     4.319000000     4.204000000     1.793000000
H     3.404000000     4.068000000     2.040000000
H     4.305000000     4.251000000     0.837000000
O     5.132000000    -2.316000000     2.453000000
H     4.284000000    -2.402000000     2.889000000
H     5.718000000    -1.983000000     3.132000000
O    -0.149000000    -3.354000000    -5.042000000
H     0.151000000    -2.483000000    -5.303000000
H     0.572000000    -3.711000000    -4.524000000
O    -2.972000000     7.769000000    -1.095000000
H    -3.007000000     7.126000000    -0.387000000
H    -3.489000000     7.380000000    -1.799000000
O     1.766000000     4.139000000     2.809000000
H     1.417000000     5.022000000     2.934000000
H     1.142000000     3.717000000     2.218000000
O    -5.175000000    -3.131000000     0.864000000
H    -4.465000000    -3.569000000     0.394000000
H    -5.020000000    -2.198000000     0.716000000
O     5.561000000    -3.992000000    -3.455000000
H     5.030000000    -3.883000000    -2.666000000
H     5.198000000    -3.362000000    -4.077000000
O    -5.396000000    -0.226000000    -1.977000000
H    -5.667000000     0.305000000    -1.228000000
H    -5.295000000     0.401000000    -2.692000000
O    -6.272000000     3.140000000     3.377000000
H    -6.919000000     3.229000000     2.677000000
H    -5.549000000     3.707000000     3.108000000
O    -1.386000000    -4.174000000    -2.680000000
H    -0.439000000    -4.305000000    -2.724000000
H    -1.645000000    -3.995000000    -3.584000000
O     1.858000000    -3.382000000     2.845000000
H     0.915000000    -3.481000000     2.712000000
H     2.160000000    -4.258000000     3.083000000
O     4.636000000     0.191000000     1.409000000
H     4.411000000     0.663000000     2.211000000
H     5.245000000    -0.490000000     1.695000000
O    -0.071000000    -6.910000000     0.827000000
H    -0.418000000    -7.257000000     0.004000000
H     0.872000000    -7.065000000     0.773000000
O     0.215000000     6.105000000     4.293000000
H    -0.374000000     6.055000000     3.540000000
H    -0.277000000     5.705000000     5.009000000
O    -5.468000000    -3.248000000    -3.045000000
H    -6.187000000    -3.261000000    -2.413000000
H    -4.690000000    -3.059000000    -2.519000000
O    -2.766000000     1.324000000     3.132000000
H    -2.331000000     0.489000000     2.962000000
H    -3.406000000     1.127000000     3.815000000
O    -2.840000000     5.589000000     5.149000000
H    -3.201000000     5.239000000     5.963000000
H    -2.276000000     4.890000000     4.817000000
O     1.082000000     8.277000000     0.708000000
H     0.269000000     7.784000000     0.819000000
H     0.922000000     8.836000000    -0.052000000
O     0.087000000     5.786000000    -2.473000000
H    -0.016000000     6.729000000    -2.351000000
H     1.028000000     5.662000000    -2.603000000
O    -0.134000000    -0.633000000    -3.965000000
H     0.647000000    -0.120000000    -4.172000000
H     0.180000000    -1.323000000    -3.381000000
O    -3.325000000    -6.758000000    -1.707000000
H    -2.478000000    -7.197000000    -1.620000000
H    -3.204000000    -5.915000000    -1.270000000
O    -2.515000000    -1.726000000    -4.864000000
H    -2.178000000    -2.151000000    -5.653000000
H    -1.802000000    -1.155000000    -4.577000000
O    -5.961000000     4.303000000    -0.687000000
H    -5.276000000     4.370000000    -1.353000000
H    -6.135000000     5.209000000    -0.430000000
O    -0.704000000     6.147000000     1.469000000
H    -0.488000000     5.251000000     1.210000000
H    -1.586000000     6.289000000     1.125000000
O     2.277000000     4.422000000     5.711000000
H     1.907000000     5.150000000     6.211000000
H     1.602000000     4.204000000     5.068000000
O    -1.731000000     3.832000000    -2.577000000
H    -1.545000000     3.260000000    -1.832000000
H    -1.251000000     4.638000000    -2.386000000
O    -4.366000000    -0.425000000     0.983000000
H    -3.473000000    -0.769000000     1.000000000
H    -4.280000000     0.447000000     0.599000000
O     2.000000000    -4.269000000    -3.463000000
H     2.492000000    -4.752000000    -4.127000000
H     2.549000000    -4.310000000    -2.680000000
O    -2.149000000     1.509000000    -3.800000000
H    -1.290000000     1.123000000    -3.630000000
H    -2.127000000     2.351000000    -3.346000000
O     1.763000000     2.822000000    -1.751000000
H     2.468000000     3.137000000    -1.187000000
H     1.570000000     1.943000000    -1.425000000
O    -1.648000000    -1.330000000     2.445000000
H    -1.440000000    -2.168000000     2.033000000
H    -1.715000000    -1.531000000     3.378000000
O    -3.332000000    -3.856000000    -0.861000000
H    -3.151000000    -4.560000000    -0.238000000
H    -2.579000000    -3.859000000    -1.451000000
O    -1.791000000     1.858000000     6.276000000
H    -1.900000000     2.708000000     6.702000000
H    -1.321000000     2.054000000     5.466000000
O    -4.774000000     5.357000000     2.974000000
H    -5.415000000     6.062000000     2.876000000
H    -4.269000000     5.600000000     3.750000000
O     4.081000000    -2.066000000    -5.177000000
H     3.336000000    -1.574000000    -4.832000000
H     4.828000000    -1.477000000    -5.068000000
O    -4.167000000     5.243000000    -2.470000000
H    -3.344000000     4.754000000    -2.494000000
H    -4.491000000     5.211000000    -3.370000000
O    -0.608000000    -3.795000000     1.870000000
H    -0.579000000    -4.190000000     0.998000000
H    -0.748000000    -4.533000000     2.463000000
O    -3.175000000     5.652000000     0.678000000
H    -3.888000000     5.423000000     1.273000000
H    -2.842000000     4.810000000     0.368000000
O    -5.007000000     1.219000000    -4.253000000
H    -4.055000000     1.312000000    -4.265000000
H    -5.171000000     0.377000000    -4.678000000
O     2.095000000    -0.079000000    -5.293000000
H     1.669000000    -0.227000000    -6.137000000
H     2.110000000     0.873000000    -5.195000000
O    -4.512000000     2.108000000     0.069000000
H    -5.124000000     2.840000000    -0.008000000
H    -3.669000000     2.520000000     0.260000000
O    -1.556000000     3.762000000     3.825000000
H    -2.024000000     2.934000000     3.720000000
H    -1.055000000     3.859000000     3.016000000
O     3.290000000     1.116000000     3.790000000
H     2.787000000     1.814000000     3.371000000
H     2.647000000     0.645000000     4.321000000
O    -2.987000000    -5.837000000     1.215000000
H    -3.425000000    -6.607000000     1.580000000
H    -2.085000000    -5.904000000     1.528000000
