161
-3029.59173
C    -0.210000000     1.394000000    -0.474000000
H    -0.095000000     2.404000000    -0.859000000
C     0.276000000     0.332000000    -1.272000000
H     0.556000000     0.520000000    -2.305000000
C     0.406000000    -0.940000000    -0.733000000
C     0.730000000    -2.119000000    -1.579000000
H     0.385000000    -3.060000000    -1.145000000
H     0.294000000    -2.004000000    -2.573000000
H     1.786000000    -1.983000000    -1.821000000
C     0.098000000    -1.146000000     0.624000000
H     0.292000000    -2.119000000     1.067000000
C    -0.425000000    -0.125000000     1.420000000
H    -0.672000000    -0.369000000     2.450000000
C    -0.575000000     1.194000000     0.894000000
C    -0.834000000     2.369000000     1.834000000
O    -1.196000000     2.142000000     2.994000000
O    -0.824000000     3.505000000     1.482000000
O    -4.164000000     4.445000000     5.629000000
H    -4.349000000     3.888000000     6.385000000
H    -3.498000000     5.058000000     5.942000000
O     1.912000000    -1.968000000     5.192000000
H     1.083000000    -1.650000000     4.833000000
H     2.454000000    -2.143000000     4.424000000
O     3.731000000     2.733000000    -0.382000000
H     3.247000000     2.888000000     0.430000000
H     3.054000000     2.540000000    -1.031000000
O     1.629000000     4.357000000     1.894000000
H     0.814000000     3.879000000     1.737000000
H     1.407000000     5.272000000     1.720000000
O    -1.220000000     5.293000000     3.678000000
H    -1.206000000     4.522000000     3.110000000
H    -0.876000000     5.999000000     3.130000000
O     0.141000000    -2.217000000    -6.130000000
H     0.031000000    -3.137000000    -6.371000000
H     0.636000000    -1.837000000    -6.856000000
O     5.180000000    -3.064000000    -0.838000000
H     5.192000000    -3.919000000    -0.407000000
H     4.788000000    -2.476000000    -0.193000000
O     1.171000000     1.186000000     4.145000000
H     1.022000000     1.091000000     5.085000000
H     0.304000000     1.369000000     3.783000000
O     0.887000000     6.905000000     1.501000000
H     0.333000000     7.345000000     0.856000000
H     1.137000000     7.598000000     2.113000000
O     1.511000000     5.202000000    -1.236000000
H     1.554000000     6.136000000    -1.439000000
H     0.817000000     5.130000000    -0.581000000
O     1.323000000     4.781000000     5.097000000
H     1.121000000     5.590000000     5.566000000
H     0.556000000     4.625000000     4.546000000
O    -2.410000000    -3.977000000     0.211000000
H    -1.477000000    -4.070000000     0.407000000
H    -2.433000000    -3.582000000    -0.660000000
O     5.401000000    -3.418000000    -3.624000000
H     5.215000000    -3.110000000    -2.737000000
H     4.907000000    -4.234000000    -3.704000000
O     4.242000000    -6.453000000    -1.872000000
H     3.291000000    -6.513000000    -1.966000000
H     4.373000000    -6.047000000    -1.015000000
O    -1.335000000     1.765000000     5.644000000
H    -1.230000000     2.058000000     4.739000000
H    -1.788000000     2.488000000     6.079000000
O     3.212000000    -2.344000000     2.770000000
H     4.166000000    -2.378000000     2.708000000
H     2.982000000    -1.475000000     2.442000000
O    -0.674000000    -5.819000000    -5.159000000
H    -0.054000000    -5.883000000    -4.432000000
H    -0.991000000    -4.917000000    -5.125000000
O    -3.779000000     1.781000000     3.380000000
H    -4.097000000     2.669000000     3.219000000
H    -2.842000000     1.824000000     3.193000000
O    -2.321000000    -1.175000000    -5.121000000
H    -1.429000000    -1.507000000    -5.019000000
H    -2.860000000    -1.961000000    -5.209000000
O     4.109000000     5.384000000     1.953000000
H     3.907000000     5.641000000     1.053000000
H     3.376000000     4.827000000     2.214000000
O     2.380000000    -3.680000000    -5.079000000
H     2.403000000    -2.740000000    -4.898000000
H     2.619000000    -3.753000000    -6.003000000
O    -2.169000000    -3.705000000    -2.397000000
H    -2.725000000    -3.428000000    -3.125000000
H    -1.373000000    -4.033000000    -2.814000000
O    -0.009000000     3.169000000    -5.026000000
H     0.629000000     3.796000000    -5.366000000
H     0.350000000     2.312000000    -5.257000000
O     3.629000000     2.352000000     4.153000000
H     3.222000000     3.185000000     4.391000000
H     2.919000000     1.842000000     3.762000000
O    -3.104000000     3.900000000     0.265000000
H    -3.408000000     4.490000000     0.955000000
H    -2.152000000     3.887000000     0.363000000
O    -2.111000000     5.962000000     6.132000000
H    -1.398000000     6.365000000     6.629000000
H    -1.773000000     5.896000000     5.239000000
O    -1.218000000     4.032000000    -2.710000000
H    -1.554000000     3.138000000    -2.775000000
H    -0.551000000     4.087000000    -3.394000000
O    -3.978000000    -0.901000000     4.253000000
H    -4.130000000    -1.313000000     3.402000000
H    -3.826000000     0.022000000     4.049000000
O    -2.319000000     7.411000000     0.499000000
H    -1.634000000     8.072000000     0.392000000
H    -3.034000000     7.876000000     0.933000000
O    -2.728000000    -3.889000000    -5.263000000
H    -3.650000000    -4.120000000    -5.382000000
H    -2.393000000    -3.778000000    -6.153000000
O     2.612000000    -6.046000000    -4.122000000
H     1.807000000    -6.089000000    -3.606000000
H     2.530000000    -5.236000000    -4.626000000
O     2.589000000    -5.251000000     2.402000000
H     2.673000000    -4.310000000     2.248000000
H     2.566000000    -5.336000000     3.355000000
O     3.517000000     0.466000000    -2.459000000
H     3.285000000     1.393000000    -2.405000000
H     4.120000000     0.327000000    -1.728000000
O    -4.190000000     1.620000000     0.334000000
H    -3.759000000     2.475000000     0.327000000
H    -4.349000000     1.439000000     1.260000000
O    -0.821000000    -0.940000000     4.826000000
H    -1.582000000    -1.476000000     5.050000000
H    -1.127000000    -0.038000000     4.922000000
O     0.582000000    -5.768000000    -2.106000000
H    -0.018000000    -6.513000000    -2.143000000
H     0.538000000    -5.470000000    -1.198000000
O     2.405000000     3.148000000    -2.685000000
H     2.290000000     3.900000000    -2.104000000
H     2.099000000     3.455000000    -3.538000000
O     2.277000000     1.040000000     1.608000000
H     1.736000000     1.224000000     2.376000000
H     1.837000000     0.309000000     1.175000000
O     4.568000000    -0.368000000     0.292000000
H     5.146000000     0.180000000     0.823000000
H     3.720000000     0.074000000     0.327000000
O     1.165000000     0.703000000    -5.780000000
H     2.021000000     0.656000000    -6.206000000
H     1.149000000    -0.052000000    -5.192000000
O     3.085000000    -0.967000000    -4.663000000
H     3.033000000    -0.521000000    -3.818000000
H     4.021000000    -0.993000000    -4.862000000
O     0.073000000    -5.488000000     0.948000000
H    -0.337000000    -6.298000000     1.250000000
H     0.906000000    -5.450000000     1.420000000
O    -3.990000000     4.793000000     2.895000000
H    -4.206000000     4.764000000     3.827000000
H    -3.362000000     5.511000000     2.817000000
O    -4.832000000     3.564000000    -1.816000000
H    -4.222000000     3.993000000    -1.217000000
H    -5.067000000     2.747000000    -1.376000000
O    -2.291000000     1.765000000    -4.278000000
H    -2.058000000     0.848000000    -4.419000000
H    -1.667000000     2.256000000    -4.813000000
O    -4.158000000    -1.956000000     1.530000000
H    -4.764000000    -1.691000000     0.838000000
H    -3.617000000    -2.635000000     1.128000000
O    -1.408000000    -0.008000000     7.853000000
H    -1.344000000     0.681000000     7.192000000
H    -0.540000000    -0.037000000     8.255000000
O    -2.665000000     6.398000000    -2.336000000
H    -2.591000000     6.453000000    -1.383000000
H    -2.162000000     5.618000000    -2.570000000
