161
-3031.31143
C    -0.449000000     0.469000000     1.341000000
H    -0.717000000     0.930000000     2.288000000
C     0.040000000     1.277000000     0.309000000
H     0.073000000     2.352000000     0.462000000
C     0.546000000     0.741000000    -0.847000000
C     1.037000000     1.514000000    -2.010000000
H     0.516000000     2.469000000    -1.915000000
H     2.108000000     1.724000000    -1.981000000
H     0.727000000     1.098000000    -2.971000000
C     0.443000000    -0.633000000    -1.025000000
H     0.879000000    -1.064000000    -1.923000000
C    -0.050000000    -1.436000000    -0.048000000
H    -0.032000000    -2.521000000    -0.110000000
C    -0.558000000    -0.891000000     1.163000000
C    -1.213000000    -1.798000000     2.201000000
O    -1.657000000    -2.901000000     1.871000000
O    -1.691000000    -1.332000000     3.198000000
O     3.956000000    -2.862000000    -5.185000000
H     3.263000000    -3.454000000    -4.891000000
H     4.445000000    -3.369000000    -5.833000000
O    -5.267000000     0.140000000     2.384000000
H    -4.721000000     0.399000000     1.642000000
H    -4.644000000    -0.134000000     3.056000000
O     3.699000000    -1.596000000    -1.690000000
H     4.361000000    -1.621000000    -2.380000000
H     2.923000000    -1.231000000    -2.116000000
O     1.370000000     3.539000000     4.994000000
H     1.545000000     3.370000000     4.068000000
H     0.728000000     2.874000000     5.242000000
O    -5.034000000    -5.248000000     4.907000000
H    -4.673000000    -4.730000000     4.187000000
H    -4.707000000    -4.819000000     5.698000000
O    -1.682000000    -2.030000000     5.845000000
H    -1.686000000    -1.897000000     4.897000000
H    -2.374000000    -2.673000000     5.999000000
O     3.578000000     3.693000000     0.565000000
H     3.877000000     2.878000000     0.163000000
H     3.557000000     4.323000000    -0.155000000
O    -0.370000000    -0.389000000    -5.033000000
H     0.550000000    -0.446000000    -4.776000000
H    -0.760000000    -1.202000000    -4.712000000
O    -4.073000000    -3.414000000     3.293000000
H    -3.153000000    -3.181000000     3.170000000
H    -4.510000000    -3.086000000     2.507000000
O    -1.101000000     4.338000000    -4.688000000
H    -1.050000000     3.692000000    -5.392000000
H    -1.902000000     4.114000000    -4.214000000
O     2.909000000    -2.274000000     5.235000000
H     2.161000000    -1.696000000     5.087000000
H     2.537000000    -3.038000000     5.675000000
O     0.078000000    -4.393000000    -2.461000000
H    -0.313000000    -5.250000000    -2.631000000
H     0.609000000    -4.523000000    -1.675000000
O    -3.430000000     0.474000000     0.396000000
H    -3.696000000     0.042000000    -0.415000000
H    -2.481000000     0.354000000     0.432000000
O    -3.658000000     4.628000000     1.890000000
H    -3.408000000     5.309000000     1.265000000
H    -2.845000000     4.410000000     2.345000000
O     1.601000000    -4.067000000    -4.587000000
H     1.488000000    -5.016000000    -4.637000000
H     1.128000000    -3.811000000    -3.795000000
O    -0.367000000    -1.902000000     8.097000000
H    -1.035000000    -1.812000000     8.777000000
H    -0.859000000    -1.905000000     7.276000000
O    -4.743000000     2.832000000     4.212000000
H    -4.572000000     1.895000000     4.311000000
H    -4.149000000     3.111000000     3.515000000
O    -1.455000000    -2.761000000    -3.949000000
H    -0.864000000    -3.407000000    -3.562000000
H    -2.304000000    -3.202000000    -3.982000000
O     1.887000000     5.136000000    -4.852000000
H     1.054000000     4.806000000    -4.514000000
H     2.494000000     5.051000000    -4.117000000
O     1.071000000     5.394000000     2.679000000
H     1.811000000     5.176000000     2.112000000
H     1.460000000     5.512000000     3.546000000
O    -0.943000000     1.648000000     5.250000000
H    -1.508000000     1.309000000     5.944000000
H    -1.440000000     1.506000000     4.445000000
O    -0.881000000    -6.367000000    -0.140000000
H    -1.252000000    -5.522000000    -0.395000000
H     0.009000000    -6.161000000     0.147000000
O    -3.691000000     3.262000000    -0.589000000
H    -3.245000000     2.417000000    -0.523000000
H    -3.939000000     3.472000000     0.312000000
O     5.967000000     1.934000000    -1.971000000
H     6.668000000     1.441000000    -2.395000000
H     6.053000000     2.821000000    -2.319000000
O    -6.086000000    -2.283000000     1.654000000
H    -6.752000000    -2.673000000     1.087000000
H    -6.134000000    -1.345000000     1.469000000
O    -1.577000000     4.113000000     3.508000000
H    -0.840000000     4.083000000     2.898000000
H    -1.235000000     3.731000000     4.316000000
O    -5.808000000    -4.564000000    -0.123000000
H    -5.332000000    -3.772000000    -0.373000000
H    -6.600000000    -4.242000000     0.307000000
O     0.730000000    -0.708000000     4.409000000
H     0.108000000    -1.413000000     4.231000000
H     0.190000000     0.010000000     4.740000000
O    -3.474000000     3.835000000    -3.588000000
H    -4.263000000     4.300000000    -3.865000000
H    -3.495000000     3.875000000    -2.632000000
O     0.317000000    -7.378000000     2.538000000
H    -0.567000000    -7.745000000     2.522000000
H     0.206000000    -6.501000000     2.905000000
O     2.986000000    -1.989000000     0.811000000
H     3.127000000    -1.858000000    -0.127000000
H     3.847000000    -2.229000000     1.152000000
O    -1.163000000     2.300000000    -6.409000000
H    -1.227000000     1.359000000    -6.250000000
H    -0.393000000     2.396000000    -6.971000000
O     2.969000000    -0.127000000     2.760000000
H     2.871000000    -0.738000000     2.029000000
H     2.324000000    -0.419000000     3.404000000
O    -3.429000000     0.107000000     4.485000000
H    -3.659000000    -0.244000000     5.346000000
H    -2.716000000    -0.454000000     4.180000000
O    -3.304000000    -5.706000000     1.627000000
H    -3.198000000    -5.286000000     0.774000000
H    -2.980000000    -5.059000000     2.254000000
O    -1.362000000    -5.412000000     5.390000000
H    -2.311000000    -5.539000000     5.405000000
H    -1.170000000    -5.151000000     4.489000000
O    -2.431000000    -4.186000000    -0.386000000
H    -3.073000000    -3.597000000    -0.783000000
H    -2.179000000    -3.751000000     0.428000000
O     2.189000000     2.514000000     2.739000000
H     2.258000000     1.584000000     2.525000000
H     2.659000000     2.958000000     2.034000000
O     5.180000000    -3.941000000    -0.958000000
H     4.622000000    -3.179000000    -1.111000000
H     5.807000000    -3.928000000    -1.682000000
O    -0.742000000     7.153000000     1.805000000
H    -0.719000000     7.830000000     2.481000000
H    -0.134000000     6.483000000     2.116000000
O     1.997000000    -5.072000000    -0.334000000
H     2.610000000    -4.403000000    -0.030000000
H     2.403000000    -5.901000000    -0.080000000
O     3.315000000     0.995000000    -6.493000000
H     2.361000000     0.912000000    -6.508000000
H     3.541000000     1.311000000    -7.367000000
O     4.116000000     4.521000000    -3.245000000
H     5.044000000     4.384000000    -3.053000000
H     3.895000000     5.332000000    -2.787000000
O    -0.107000000    -4.809000000     3.094000000
H    -0.513000000    -4.192000000     2.485000000
H     0.759000000    -4.439000000     3.268000000
O     4.275000000     1.077000000    -0.141000000
H     4.025000000     0.154000000    -0.091000000
H     4.960000000     1.104000000    -0.808000000
O     2.277000000    -0.588000000    -4.205000000
H     2.821000000    -1.346000000    -4.418000000
H     2.719000000     0.149000000    -4.627000000
O     2.266000000    -3.456000000     3.012000000
H     2.636000000    -2.983000000     2.267000000
H     2.732000000    -3.108000000     3.772000000
O    -2.775000000     1.001000000    -3.944000000
H    -2.018000000     0.437000000    -4.097000000
H    -2.428000000     1.891000000    -4.008000000
