161
-3052.92615
C    -1.013000000    -0.554000000     0.949000000
H    -1.714000000    -1.129000000     1.549000000
C     0.196000000    -1.159000000     0.560000000
H     0.446000000    -2.193000000     0.785000000
C     1.096000000    -0.477000000    -0.297000000
C     2.430000000    -1.173000000    -0.695000000
H     2.970000000    -1.269000000     0.250000000
H     2.193000000    -2.199000000    -0.982000000
H     2.919000000    -0.603000000    -1.488000000
C     0.794000000     0.834000000    -0.672000000
H     1.447000000     1.371000000    -1.355000000
C    -0.423000000     1.443000000    -0.333000000
H    -0.693000000     2.372000000    -0.828000000
C    -1.356000000     0.739000000     0.502000000
C    -2.719000000     1.208000000     0.647000000
O    -2.996000000     2.324000000     0.232000000
O    -3.570000000     0.473000000     1.168000000
O     6.677000000    -0.866000000    -4.171000000
H     6.158000000    -1.287000000    -3.485000000
H     6.064000000    -0.273000000    -4.606000000
O     7.914000000    -1.246000000    -0.920000000
H     7.075000000    -1.044000000    -0.505000000
H     7.919000000    -2.200000000    -0.999000000
O     1.308000000    -4.989000000     2.775000000
H     1.136000000    -5.684000000     2.140000000
H     0.439000000    -4.700000000     3.055000000
O     3.808000000    -6.684000000    -0.619000000
H     3.641000000    -7.582000000    -0.904000000
H     3.274000000    -6.144000000    -1.200000000
O    -0.437000000     1.065000000     5.113000000
H     0.387000000     1.552000000     5.108000000
H    -1.078000000     1.674000000     4.747000000
O    -5.827000000    -0.464000000     0.087000000
H    -5.024000000     0.019000000     0.282000000
H    -6.439000000     0.203000000    -0.224000000
O    -0.754000000    -2.922000000     2.895000000
H    -1.621000000    -2.697000000     3.233000000
H    -0.162000000    -2.304000000     3.324000000
O    -7.432000000     1.665000000    -0.328000000
H    -8.255000000     1.277000000    -0.033000000
H    -7.640000000     2.588000000    -0.471000000
O     6.287000000     1.936000000     0.108000000
H     5.344000000     1.993000000    -0.046000000
H     6.419000000     2.369000000     0.951000000
O     2.220000000    -4.935000000    -2.449000000
H     3.174000000    -4.940000000    -2.525000000
H     1.945000000    -4.159000000    -2.938000000
O    -0.109000000     5.487000000     0.693000000
H     0.121000000     4.709000000     1.202000000
H    -0.898000000     5.235000000     0.214000000
O    -3.324000000    -2.356000000    -0.832000000
H    -3.075000000    -1.479000000    -0.541000000
H    -2.524000000    -2.874000000    -0.747000000
O    -0.115000000     1.523000000    -3.999000000
H    -0.382000000     0.792000000    -3.442000000
H     0.816000000     1.371000000    -4.163000000
O    -1.192000000    -3.795000000    -1.364000000
H    -0.303000000    -3.474000000    -1.215000000
H    -1.154000000    -4.723000000    -1.132000000
O    -6.264000000    -1.504000000    -2.245000000
H    -7.026000000    -1.022000000    -1.924000000
H    -5.615000000    -1.418000000    -1.547000000
O    -2.353000000     2.919000000     3.933000000
H    -2.358000000     3.762000000     4.387000000
H    -3.154000000     2.923000000     3.410000000
O    -3.991000000     1.708000000    -4.327000000
H    -3.748000000     2.509000000    -4.792000000
H    -4.065000000     1.975000000    -3.411000000
O     3.614000000     1.896000000     0.527000000
H     3.281000000     2.622000000     0.000000000
H     2.894000000     1.679000000     1.119000000
O     1.761000000     0.959000000     2.393000000
H     2.561000000     0.436000000     2.441000000
H     1.141000000     0.405000000     1.918000000
O     5.607000000    -0.591000000     0.432000000
H     4.926000000    -0.788000000     1.076000000
H     5.833000000     0.324000000     0.595000000
O    -1.587000000    -5.258000000     1.413000000
H    -1.637000000    -4.377000000     1.785000000
H    -2.492000000    -5.478000000     1.195000000
O    -5.410000000    -0.170000000     3.303000000
H    -6.090000000     0.473000000     3.103000000
H    -4.702000000     0.033000000     2.691000000
O    -4.012000000    -4.613000000     4.363000000
H    -3.944000000    -3.750000000     3.956000000
H    -4.914000000    -4.658000000     4.681000000
O     3.561000000     2.164000000    -4.109000000
H     4.341000000     2.194000000    -4.663000000
H     3.211000000     1.282000000    -4.235000000
O     0.982000000    -1.160000000     4.273000000
H     1.863000000    -0.812000000     4.133000000
H     0.482000000    -0.419000000     4.614000000
O    -2.154000000    -0.850000000     5.871000000
H    -2.653000000    -0.384000000     6.541000000
H    -1.425000000    -0.264000000     5.665000000
O    -4.535000000     5.585000000    -3.319000000
H    -4.617000000     5.258000000    -4.215000000
H    -4.128000000     4.864000000    -2.837000000
O     3.567000000    -3.403000000     3.119000000
H     2.791000000    -3.755000000     2.684000000
H     3.680000000    -3.956000000     3.892000000
O     2.113000000     4.391000000    -4.606000000
H     2.908000000     3.868000000    -4.506000000
H     1.405000000     3.806000000    -4.334000000
O    -5.254000000     2.885000000     1.834000000
H    -4.561000000     2.350000000     1.447000000
H    -6.065000000     2.434000000     1.598000000
O    -4.956000000     5.589000000    -0.010000000
H    -5.190000000     5.096000000     0.776000000
H    -5.692000000     5.452000000    -0.607000000
O    -4.387000000    -4.832000000     0.656000000
H    -5.131000000    -4.997000000     1.234000000
H    -4.374000000    -3.882000000     0.546000000
O    -6.530000000    -3.009000000     0.656000000
H    -5.980000000    -2.248000000     0.842000000
H    -7.257000000    -2.659000000     0.140000000
O     0.235000000     3.218000000     2.338000000
H    -0.433000000     2.771000000     2.857000000
H     0.916000000     2.559000000     2.206000000
O    -6.559000000     5.337000000     2.753000000
H    -7.260000000     5.110000000     3.365000000
H    -6.101000000     4.511000000     2.596000000
O     3.455000000     3.550000000    -1.744000000
H     3.387000000     3.048000000    -2.556000000
H     2.670000000     4.098000000    -1.735000000
O     1.525000000     5.365000000    -1.761000000
H     1.405000000     6.266000000    -1.461000000
H     0.920000000     5.275000000    -2.498000000
O    -4.730000000     2.749000000    -1.948000000
H    -4.127000000     2.606000000    -1.219000000
H    -5.556000000     2.996000000    -1.532000000
O    -7.668000000     1.278000000     2.617000000
H    -8.119000000     1.338000000     3.459000000
H    -8.045000000     0.503000000     2.199000000
O     4.813000000    -4.831000000    -3.412000000
H     4.576000000    -4.683000000    -4.328000000
H     4.920000000    -3.952000000    -3.048000000
O    -3.361000000    -1.999000000     3.569000000
H    -4.160000000    -1.496000000     3.412000000
H    -3.031000000    -1.669000000     4.405000000
O     1.194000000    -2.784000000    -4.009000000
H     0.414000000    -2.262000000    -4.197000000
H     1.132000000    -3.531000000    -4.605000000
O    -2.557000000     4.810000000    -0.721000000
H    -3.321000000     5.316000000    -0.443000000
H    -2.683000000     3.948000000    -0.324000000
O     2.844000000    -0.363000000    -5.114000000
H     2.507000000    -0.166000000    -5.988000000
H     2.554000000    -1.259000000    -4.942000000
O     4.033000000    -0.684000000     2.633000000
H     4.108000000    -1.592000000     2.928000000
H     4.800000000    -0.248000000     3.003000000
O     5.509000000    -2.590000000    -1.871000000
H     6.284000000    -2.946000000    -1.438000000
H     5.028000000    -2.145000000    -1.173000000
O    -0.562000000     4.049000000    -2.868000000
H    -0.733000000     3.158000000    -3.171000000
H    -1.415000000     4.372000000    -2.579000000
O     2.190000000     6.543000000     0.954000000
H     2.927000000     5.974000000     0.733000000
H     1.415000000     6.005000000     0.793000000
