161
-2995.80775
C     0.747000000     0.034000000     1.251000000
H     1.298000000     0.187000000     2.176000000
C     0.612000000     1.050000000     0.252000000
H     1.126000000     1.981000000     0.478000000
C    -0.183000000     0.887000000    -0.863000000
C    -0.286000000     2.058000000    -1.811000000
H    -1.090000000     2.760000000    -1.579000000
H     0.581000000     2.718000000    -1.872000000
H    -0.439000000     1.520000000    -2.749000000
C    -0.777000000    -0.323000000    -1.001000000
H    -1.396000000    -0.503000000    -1.877000000
C    -0.602000000    -1.389000000    -0.109000000
H    -0.950000000    -2.376000000    -0.403000000
C     0.201000000    -1.192000000     1.026000000
C     0.347000000    -2.208000000     2.095000000
O    -0.491000000    -3.084000000     2.095000000
O     1.307000000    -2.120000000     2.883000000
O    -0.036000000     6.777000000    -0.579000000
H     0.437000000     6.187000000     0.009000000
H    -0.834000000     6.299000000    -0.806000000
O    -0.401000000     5.883000000     4.198000000
H     0.049000000     5.322000000     3.566000000
H     0.152000000     5.856000000     4.979000000
O    -3.743000000    -2.627000000    -2.823000000
H    -2.829000000    -2.436000000    -3.031000000
H    -4.157000000    -1.766000000    -2.751000000
O     0.412000000     0.597000000     7.466000000
H    -0.114000000     0.186000000     8.151000000
H    -0.057000000     0.404000000     6.655000000
O     3.810000000     4.914000000    -1.128000000
H     2.880000000     4.697000000    -1.057000000
H     4.054000000     4.632000000    -2.010000000
O     0.546000000     3.396000000     2.664000000
H     1.206000000     3.138000000     3.307000000
H     0.093000000     2.582000000     2.445000000
O    -2.387000000    -1.918000000     3.977000000
H    -1.838000000    -2.338000000     3.314000000
H    -2.787000000    -1.177000000     3.524000000
O     0.112000000    -1.136000000     4.994000000
H     0.590000000    -1.739000000     4.425000000
H    -0.808000000    -1.369000000     4.871000000
O    -4.410000000     1.590000000    -1.239000000
H    -4.655000000     2.498000000    -1.415000000
H    -4.321000000     1.546000000    -0.287000000
O    -2.377000000    -4.835000000    -4.551000000
H    -2.981000000    -4.957000000    -3.818000000
H    -1.888000000    -4.043000000    -4.328000000
O    -2.746000000    -4.877000000     1.866000000
H    -3.477000000    -4.421000000     1.449000000
H    -1.982000000    -4.335000000     1.669000000
O     2.722000000    -4.169000000     3.548000000
H     2.099000000    -3.518000000     3.227000000
H     2.198000000    -4.960000000     3.675000000
O    -4.702000000    -3.115000000     1.487000000
H    -5.049000000    -2.531000000     0.813000000
H    -5.473000000    -3.403000000     1.975000000
O     2.647000000    -2.710000000     6.639000000
H     2.960000000    -2.789000000     5.738000000
H     1.778000000    -2.318000000     6.556000000
O    -3.738000000     4.799000000    -1.649000000
H    -3.764000000     4.640000000    -0.706000000
H    -3.694000000     5.752000000    -1.731000000
O    -0.830000000    -8.061000000     1.296000000
H    -0.543000000    -7.252000000     0.872000000
H    -0.690000000    -7.906000000     2.230000000
O    -6.328000000    -1.220000000    -4.511000000
H    -6.941000000    -0.485000000    -4.511000000
H    -5.513000000    -0.852000000    -4.168000000
O     1.774000000    -1.225000000    -5.029000000
H     1.032000000    -0.691000000    -5.311000000
H     1.787000000    -1.960000000    -5.642000000
O    -0.893000000     0.110000000    -5.507000000
H    -1.137000000    -0.104000000    -6.408000000
H    -1.151000000     1.026000000    -5.400000000
O    -1.138000000    -2.421000000    -3.989000000
H    -1.107000000    -1.570000000    -4.426000000
H    -0.277000000    -2.805000000    -4.150000000
O    -4.289000000    -3.728000000     5.267000000
H    -3.719000000    -3.000000000     5.019000000
H    -5.013000000    -3.315000000     5.738000000
O    -1.566000000     4.713000000    -3.306000000
H    -1.944000000     4.167000000    -3.995000000
H    -2.259000000     4.786000000    -2.651000000
O     4.967000000    -5.370000000     4.778000000
H     4.237000000    -4.810000000     4.512000000
H     5.714000000    -5.042000000     4.277000000
O    -2.793000000     1.200000000     1.084000000
H    -2.542000000     0.840000000     0.234000000
H    -1.985000000     1.195000000     1.596000000
O     0.121000000     4.689000000    -5.958000000
H    -0.627000000     4.205000000    -5.609000000
H    -0.137000000     4.917000000    -6.851000000
O     4.343000000     1.067000000    -0.118000000
H     4.135000000     0.390000000     0.527000000
H     3.632000000     1.016000000    -0.756000000
O    -4.230000000    -5.438000000    -2.723000000
H    -4.031000000    -4.530000000    -2.495000000
H    -4.534000000    -5.829000000    -1.904000000
O    -3.213000000     5.269000000     0.993000000
H    -3.868000000     5.866000000     1.354000000
H    -3.049000000     4.640000000     1.697000000
O     3.809000000    -2.536000000     0.792000000
H     3.438000000    -3.337000000     1.163000000
H     4.735000000    -2.568000000     1.032000000
O     2.511000000     3.245000000     4.512000000
H     2.572000000     4.201000000     4.529000000
H     2.865000000     2.968000000     5.357000000
O     0.122000000    -7.025000000    -1.646000000
H     0.218000000    -6.405000000    -0.923000000
H     0.927000000    -6.925000000    -2.155000000
O    -3.643000000    -7.591000000     1.629000000
H    -2.838000000    -7.077000000     1.687000000
H    -4.196000000    -7.103000000     1.019000000
O    -4.115000000     0.197000000     3.410000000
H    -3.667000000     0.642000000     2.691000000
H    -4.376000000     0.903000000     4.002000000
O     5.822000000    -1.735000000     5.027000000
H     4.940000000    -1.551000000     4.702000000
H     5.895000000    -2.689000000     4.994000000
O    -4.326000000     0.199000000    -3.560000000
H    -4.210000000     0.553000000    -2.678000000
H    -4.323000000     0.968000000    -4.129000000
O    -3.312000000    -6.290000000     4.184000000
H    -3.115000000    -5.852000000     3.357000000
H    -3.582000000    -5.583000000     4.771000000
O     1.459000000     5.163000000     0.863000000
H     2.223000000     5.586000000     1.255000000
H     1.126000000     4.587000000     1.551000000
O    -1.357000000     1.049000000     3.654000000
H    -1.858000000     1.680000000     4.170000000
H    -0.807000000     0.598000000     4.295000000
O    -2.498000000     3.351000000    -5.673000000
H    -3.324000000     2.871000000    -5.737000000
H    -2.713000000     4.237000000    -5.966000000
O     3.263000000    -3.507000000    -2.235000000
H     2.720000000    -2.747000000    -2.030000000
H     3.681000000    -3.734000000    -1.405000000
O     2.240000000    -0.860000000    -2.075000000
H     1.472000000    -0.478000000    -1.650000000
H     2.051000000    -0.796000000    -3.011000000
O    -0.319000000    -4.441000000     4.468000000
H    -1.027000000    -5.085000000     4.457000000
H    -0.456000000    -3.922000000     3.676000000
O     0.259000000    -5.594000000     1.151000000
H     1.037000000    -5.800000000     1.669000000
H    -0.050000000    -4.759000000     1.504000000
O     3.385000000    -0.985000000     4.030000000
H     2.680000000    -1.357000000     3.500000000
H     3.105000000    -0.088000000     4.207000000
O     2.000000000     2.666000000    -6.862000000
H     1.422000000     2.995000000    -6.174000000
H     2.663000000     3.349000000    -6.965000000
O     1.756000000    -6.643000000     3.508000000
H     2.110000000    -7.485000000     3.793000000
H     0.812000000    -6.721000000     3.641000000
O     0.972000000     6.424000000    -3.380000000
H     0.641000000     6.306000000    -2.490000000
H     0.367000000     5.924000000    -3.929000000
O     4.243000000     4.234000000    -3.706000000
H     4.574000000     3.350000000    -3.545000000
H     4.212000000     4.308000000    -4.660000000
