161
-3054.30056
C    -0.884000000    -0.495000000    -1.094000000
H    -1.404000000    -0.908000000    -1.955000000
C     0.504000000    -0.567000000    -1.081000000
H     1.016000000    -1.055000000    -1.907000000
C     1.252000000    -0.112000000     0.026000000
C     2.772000000    -0.291000000     0.132000000
H     3.130000000    -0.824000000    -0.751000000
H     3.320000000     0.638000000     0.307000000
H     2.920000000    -0.851000000     1.058000000
C     0.569000000     0.516000000     0.994000000
H     1.037000000     0.946000000     1.876000000
C    -0.828000000     0.615000000     0.992000000
H    -1.413000000     1.122000000     1.755000000
C    -1.628000000     0.113000000    -0.079000000
C    -3.054000000     0.324000000    -0.077000000
O    -3.616000000     0.974000000     0.797000000
O    -3.701000000    -0.138000000    -0.992000000
O    -5.739000000     0.832000000     2.276000000
H    -6.238000000     0.188000000     1.774000000
H    -4.987000000     1.038000000     1.720000000
O    -2.141000000    -2.802000000     1.118000000
H    -1.260000000    -3.050000000     1.400000000
H    -2.354000000    -2.034000000     1.647000000
O     1.722000000    -2.537000000     4.080000000
H     1.091000000    -1.853000000     4.302000000
H     2.533000000    -2.064000000     3.895000000
O     6.299000000     0.365000000     3.801000000
H     6.993000000     0.923000000     4.151000000
H     5.672000000     0.284000000     4.520000000
O     3.558000000     0.799000000    -4.547000000
H     3.024000000     1.461000000    -4.107000000
H     3.034000000     0.000000000    -4.504000000
O     4.649000000    -3.462000000     0.189000000
H     5.129000000    -3.351000000     1.010000000
H     4.478000000    -4.402000000     0.136000000
O    -7.513000000    -1.028000000     0.449000000
H    -8.313000000    -1.070000000    -0.074000000
H    -7.159000000    -1.917000000     0.416000000
O    -3.386000000    -0.479000000     3.761000000
H    -3.231000000    -1.262000000     4.289000000
H    -4.124000000    -0.712000000     3.199000000
O     2.722000000    -1.990000000    -4.052000000
H     2.106000000    -2.595000000    -4.466000000
H     3.255000000    -2.545000000    -3.482000000
O     0.347000000    -4.270000000     1.918000000
H     0.848000000    -3.754000000     2.550000000
H     0.930000000    -4.356000000     1.164000000
O    -1.756000000    -4.697000000    -4.487000000
H    -1.089000000    -4.781000000    -5.169000000
H    -1.289000000    -4.323000000    -3.740000000
O    -3.543000000     1.768000000     5.333000000
H    -3.535000000     0.957000000     4.825000000
H    -3.438000000     1.483000000     6.241000000
O     0.428000000     0.002000000    -6.192000000
H     0.045000000    -0.639000000    -5.594000000
H     0.271000000     0.847000000    -5.770000000
O    -1.952000000     3.937000000    -0.862000000
H    -2.897000000     3.903000000    -0.715000000
H    -1.791000000     4.823000000    -1.185000000
O    -5.027000000    -3.636000000    -3.224000000
H    -5.163000000    -2.694000000    -3.322000000
H    -4.555000000    -3.725000000    -2.397000000
O     1.502000000    -0.558000000     6.842000000
H     2.251000000    -0.012000000     6.604000000
H     0.862000000    -0.402000000     6.147000000
O     1.850000000    -3.848000000    -0.317000000
H     2.431000000    -3.172000000    -0.667000000
H     2.427000000    -4.592000000    -0.144000000
O     5.455000000     2.466000000    -3.229000000
H     4.560000000     2.802000000    -3.177000000
H     5.512000000     2.070000000    -4.099000000
O     8.269000000    -1.307000000    -0.193000000
H     8.036000000    -1.258000000     0.734000000
H     7.493000000    -0.985000000    -0.652000000
O    -4.872000000    -0.868000000    -3.419000000
H    -5.040000000    -0.010000000    -3.810000000
H    -4.129000000    -0.723000000    -2.834000000
O     3.680000000     0.535000000     5.222000000
H     3.674000000    -0.175000000     4.579000000
H     3.203000000     1.247000000     4.797000000
O     7.557000000    -1.379000000     2.384000000
H     6.950000000    -0.782000000     2.821000000
H     7.696000000    -2.085000000     3.015000000
O    -2.879000000     3.039000000     2.636000000
H    -3.082000000     2.377000000     1.974000000
H    -2.792000000     2.545000000     3.451000000
O     1.041000000    -3.726000000    -5.425000000
H     1.381000000    -3.277000000    -6.199000000
H     0.329000000    -3.166000000    -5.116000000
O     4.789000000    -2.824000000    -2.501000000
H     4.914000000    -1.903000000    -2.272000000
H     4.830000000    -3.287000000    -1.665000000
O     4.235000000    -1.533000000     3.555000000
H     4.524000000    -2.394000000     3.254000000
H     4.851000000    -0.920000000     3.153000000
O     2.739000000     3.397000000    -3.220000000
H     1.902000000     3.337000000    -2.760000000
H     2.805000000     4.317000000    -3.477000000
O    -3.653000000    -2.794000000    -0.936000000
H    -3.886000000    -1.866000000    -0.905000000
H    -3.100000000    -2.928000000    -0.165000000
O    -0.256000000     2.334000000     5.567000000
H    -0.844000000     2.993000000     5.935000000
H     0.612000000     2.734000000     5.614000000
O     2.366000000     2.539000000     3.639000000
H     2.327000000     3.385000000     4.085000000
H     2.667000000     2.748000000     2.755000000
O     4.699000000     4.995000000    -0.253000000
H     5.422000000     4.545000000     0.185000000
H     3.911000000     4.641000000     0.161000000
O     2.860000000    -5.138000000    -3.372000000
H     2.052000000    -5.096000000    -2.860000000
H     2.568000000    -5.116000000    -4.283000000
O    -3.901000000     5.228000000     3.568000000
H    -3.565000000     4.416000000     3.189000000
H    -3.344000000     5.913000000     3.199000000
O    -6.438000000     2.108000000     4.646000000
H    -6.401000000     1.667000000     3.797000000
H    -5.522000000     2.196000000     4.909000000
O    -6.153000000     1.099000000    -0.821000000
H    -6.809000000     0.449000000    -0.567000000
H    -5.363000000     0.587000000    -0.994000000
O    -4.978000000     1.627000000    -4.586000000
H    -4.323000000     2.184000000    -5.007000000
H    -5.605000000     1.428000000    -5.282000000
O    -7.941000000    -2.414000000    -2.809000000
H    -8.650000000    -1.985000000    -2.330000000
H    -7.220000000    -1.786000000    -2.782000000
O    -0.554000000    -3.414000000    -2.094000000
H    -1.249000000    -3.180000000    -1.478000000
H     0.212000000    -3.571000000    -1.542000000
O    -4.491000000     2.939000000    -2.221000000
H    -4.576000000     2.590000000    -3.109000000
H    -4.971000000     2.318000000    -1.673000000
O    -1.947000000     1.928000000    -3.257000000
H    -1.940000000     2.017000000    -2.304000000
H    -1.757000000     2.808000000    -3.582000000
O    -0.501000000    -1.840000000    -4.547000000
H    -1.402000000    -1.583000000    -4.740000000
H    -0.512000000    -2.075000000    -3.619000000
O    -2.804000000    -1.161000000    -5.741000000
H    -3.059000000    -0.718000000    -6.550000000
H    -3.633000000    -1.411000000    -5.333000000
O     6.302000000     0.017000000    -2.273000000
H     6.550000000    -0.075000000    -3.193000000
H     5.882000000     0.876000000    -2.223000000
O    -0.010000000    -0.386000000     4.394000000
H    -0.120000000     0.565000000     4.430000000
H    -0.851000000    -0.712000000     4.075000000
O     0.699000000     2.743000000    -1.373000000
H    -0.174000000     3.101000000    -1.530000000
H     0.567000000     2.074000000    -0.701000000
O     2.136000000     4.037000000     0.744000000
H     1.847000000     3.724000000    -0.113000000
H     1.366000000     4.472000000     1.111000000
O    -5.556000000     3.477000000     0.836000000
H    -5.427000000     2.601000000     0.470000000
H    -6.143000000     3.341000000     1.580000000
O    -0.808000000     4.598000000     1.570000000
H    -1.140000000     4.154000000     0.789000000
H    -1.256000000     4.168000000     2.298000000
