161
-3046.91564
C    -0.648000000    -0.958000000    -1.002000000
H    -0.836000000    -1.744000000    -1.729000000
C     0.666000000    -0.994000000    -0.543000000
H     1.212000000    -1.826000000    -0.981000000
C     1.144000000    -0.083000000     0.390000000
C     2.682000000     0.142000000     0.549000000
H     2.890000000     0.761000000     1.424000000
H     3.143000000    -0.823000000     0.770000000
H     3.194000000     0.580000000    -0.310000000
C     0.297000000     0.955000000     0.908000000
H     0.572000000     1.777000000     1.562000000
C    -1.039000000     0.882000000     0.489000000
H    -1.693000000     1.647000000     0.898000000
C    -1.537000000    -0.082000000    -0.302000000
C    -2.984000000    -0.101000000    -0.592000000
O    -3.577000000     0.939000000    -0.445000000
O    -3.483000000    -1.065000000    -1.083000000
O    -5.028000000    -1.074000000     1.318000000
H    -5.385000000    -0.186000000     1.287000000
H    -4.752000000    -1.253000000     0.420000000
O    -2.213000000    -3.823000000     0.949000000
H    -2.562000000    -4.330000000     1.683000000
H    -2.069000000    -2.948000000     1.310000000
O     2.984000000     2.157000000     3.481000000
H     3.015000000     1.264000000     3.822000000
H     2.397000000     2.621000000     4.078000000
O     4.946000000    -3.840000000     0.277000000
H     4.706000000    -3.067000000    -0.235000000
H     4.670000000    -3.631000000     1.169000000
O    -7.606000000    -0.795000000    -0.779000000
H    -8.322000000    -0.867000000    -1.410000000
H    -7.981000000    -1.108000000     0.044000000
O     3.561000000    -3.239000000    -3.092000000
H     3.296000000    -3.995000000    -2.568000000
H     2.862000000    -2.599000000    -2.960000000
O    -8.308000000     2.192000000    -0.522000000
H    -7.785000000     2.449000000    -1.282000000
H    -7.662000000     2.009000000     0.161000000
O     0.207000000    -4.506000000     2.955000000
H     0.118000000    -3.731000000     2.401000000
H     0.993000000    -4.944000000     2.628000000
O    -0.837000000    -5.957000000    -3.284000000
H    -0.020000000    -6.300000000    -3.646000000
H    -0.568000000    -5.471000000    -2.504000000
O    -5.334000000     0.760000000    -4.525000000
H    -5.601000000    -0.114000000    -4.809000000
H    -5.589000000     0.801000000    -3.603000000
O    -2.586000000     2.888000000    -1.954000000
H    -3.370000000     2.353000000    -1.829000000
H    -2.167000000     2.522000000    -2.733000000
O    -4.967000000    -4.678000000    -3.432000000
H    -4.999000000    -4.315000000    -2.547000000
H    -4.035000000    -4.814000000    -3.602000000
O     2.680000000    -4.901000000    -1.187000000
H     3.517000000    -4.700000000    -0.768000000
H     2.776000000    -5.803000000    -1.493000000
O     6.411000000     1.177000000    -3.478000000
H     5.684000000     0.698000000    -3.875000000
H     7.081000000     1.204000000    -4.160000000
O    -2.840000000    -1.825000000    -3.476000000
H    -3.661000000    -1.552000000    -3.887000000
H    -2.919000000    -1.535000000    -2.567000000
O     5.817000000    -1.234000000    -0.677000000
H     6.577000000    -1.574000000    -0.206000000
H     5.929000000    -0.284000000    -0.659000000
O    -3.769000000     3.375000000     0.939000000
H    -3.642000000     2.785000000     0.196000000
H    -3.384000000     2.912000000     1.682000000
O     1.403000000    -2.800000000    -5.544000000
H     0.699000000    -2.296000000    -5.953000000
H     1.903000000    -2.153000000    -5.046000000
O     3.889000000    -0.631000000     3.935000000
H     4.077000000    -0.922000000     3.043000000
H     4.750000000    -0.517000000     4.337000000
O     3.842000000     1.914000000    -3.753000000
H     3.242000000     2.118000000    -3.035000000
H     4.700000000     2.193000000    -3.434000000
O    -3.724000000     2.425000000     3.874000000
H    -4.132000000     3.288000000     3.951000000
H    -4.317000000     1.838000000     4.342000000
O    -4.591000000    -3.610000000    -0.957000000
H    -4.869000000    -2.745000000    -1.258000000
H    -3.731000000    -3.461000000    -0.563000000
O    -6.573000000    -2.806000000     2.773000000
H    -7.461000000    -2.938000000     2.443000000
H    -6.164000000    -2.221000000     2.134000000
O     0.408000000    -0.105000000     3.891000000
H    -0.020000000     0.547000000     4.445000000
H     1.010000000     0.401000000     3.345000000
O     1.147000000     4.011000000     4.718000000
H     0.266000000     3.854000000     5.058000000
H     1.011000000     4.560000000     3.945000000
O     4.134000000     3.390000000    -0.225000000
H     4.227000000     3.631000000     0.697000000
H     5.026000000     3.188000000    -0.510000000
O    -4.801000000     5.341000000     2.476000000
H    -4.746000000     4.736000000     1.736000000
H    -4.236000000     6.073000000     2.230000000
O     6.841000000     2.441000000    -1.134000000
H     7.457000000     1.959000000    -0.582000000
H     6.887000000     2.001000000    -1.983000000
O    -5.757000000     0.746000000    -1.965000000
H    -6.311000000     0.232000000    -1.377000000
H    -4.864000000     0.573000000    -1.665000000
O    -2.296000000    -4.192000000    -4.603000000
H    -2.293000000    -3.457000000    -3.989000000
H    -1.884000000    -4.909000000    -4.120000000
O     2.040000000     5.020000000    -0.295000000
H     2.580000000     4.316000000    -0.654000000
H     1.520000000     5.326000000    -1.038000000
O    -5.317000000    -2.073000000    -4.878000000
H    -5.302000000    -2.971000000    -4.547000000
H    -6.023000000    -2.068000000    -5.524000000
O     4.205000000    -3.544000000     2.939000000
H     4.835000000    -3.678000000     3.646000000
H     3.873000000    -4.420000000     2.744000000
O    -0.368000000    -5.319000000    -0.478000000
H    -0.769000000    -4.472000000    -0.281000000
H     0.514000000    -5.103000000    -0.779000000
O    -6.668000000     3.385000000    -2.464000000
H    -6.492000000     3.588000000    -3.383000000
H    -6.418000000     2.466000000    -2.369000000
O    -0.760000000     0.721000000    -3.980000000
H    -1.218000000    -0.067000000    -3.687000000
H    -1.167000000     0.937000000    -4.819000000
O     2.328000000    -0.594000000    -3.822000000
H     1.704000000     0.122000000    -3.702000000
H     3.183000000    -0.164000000    -3.850000000
O    -1.197000000    -2.427000000    -6.872000000
H    -1.816000000    -1.697000000    -6.847000000
H    -1.462000000    -2.992000000    -6.146000000
O     6.047000000    -2.402000000    -3.250000000
H     5.234000000    -2.900000000    -3.170000000
H     6.109000000    -1.909000000    -2.432000000
O    -1.429000000    -1.939000000     2.686000000
H    -0.800000000    -1.284000000     2.987000000
H    -2.284000000    -1.534000000     2.832000000
O    -1.224000000     2.061000000     4.854000000
H    -2.041000000     2.136000000     4.361000000
H    -1.500000000     1.827000000     5.740000000
O    -1.996000000     4.849000000     3.344000000
H    -2.369000000     4.045000000     2.983000000
H    -2.419000000     5.551000000     2.850000000
O     1.298000000     1.560000000    -2.279000000
H     0.426000000     1.344000000    -2.609000000
H     1.312000000     1.211000000    -1.388000000
O     2.849000000    -2.616000000     5.326000000
H     3.691000000    -3.072000000     5.338000000
H     2.976000000    -1.895000000     4.710000000
O     0.911000000     5.185000000     2.209000000
H     1.422000000     5.029000000     1.415000000
H     0.000000000     5.096000000     1.929000000
O    -6.079000000     1.532000000     1.020000000
H    -6.411000000     1.887000000     1.844000000
H    -5.370000000     2.126000000     0.772000000
O    -1.341000000     5.174000000    -0.523000000
H    -1.783000000     4.374000000    -0.805000000
H    -1.981000000     5.616000000     0.036000000
O     4.506000000     3.990000000     2.482000000
H     5.363000000     3.724000000     2.813000000
H     3.894000000     3.364000000     2.869000000
