161
-3038.67999
C    -0.522000000    -1.259000000    -0.576000000
H    -0.829000000    -2.286000000    -0.755000000
C     0.700000000    -1.079000000     0.120000000
H     1.324000000    -1.958000000     0.258000000
C     1.001000000     0.123000000     0.732000000
C     2.248000000     0.266000000     1.575000000
H     2.445000000     1.305000000     1.846000000
H     2.222000000    -0.336000000     2.486000000
H     3.129000000    -0.023000000     0.998000000
C     0.197000000     1.257000000     0.498000000
H     0.407000000     2.231000000     0.932000000
C    -0.957000000     1.062000000    -0.323000000
H    -1.572000000     1.890000000    -0.667000000
C    -1.323000000    -0.175000000    -0.856000000
C    -2.493000000    -0.308000000    -1.807000000
O    -3.290000000     0.590000000    -2.000000000
O    -2.691000000    -1.292000000    -2.466000000
O    -5.680000000     0.079000000     1.682000000
H    -6.460000000     0.035000000     1.129000000
H    -5.035000000     0.545000000     1.150000000
O     0.237000000     4.326000000    -1.768000000
H    -0.355000000     3.620000000    -2.024000000
H    -0.342000000     5.032000000    -1.479000000
O    -5.007000000    -3.035000000    -1.032000000
H    -4.762000000    -2.813000000    -0.134000000
H    -4.430000000    -2.499000000    -1.577000000
O     1.387000000     5.597000000     1.883000000
H     2.196000000     5.535000000     1.375000000
H     1.603000000     5.199000000     2.727000000
O    -7.270000000    -1.565000000    -1.209000000
H    -6.954000000    -0.798000000    -1.685000000
H    -6.588000000    -2.225000000    -1.339000000
O    -3.395000000    -2.873000000     1.185000000
H    -2.881000000    -3.649000000     0.960000000
H    -4.061000000    -3.195000000     1.792000000
O     3.177000000     1.598000000     4.590000000
H     3.620000000     1.469000000     5.429000000
H     3.880000000     1.566000000     3.941000000
O     0.996000000    -4.924000000    -2.199000000
H     1.597000000    -4.191000000    -2.333000000
H     1.540000000    -5.612000000    -1.815000000
O    -3.621000000    -0.406000000    -4.757000000
H    -3.863000000    -0.413000000    -3.832000000
H    -2.664000000    -0.400000000    -4.754000000
O    -0.178000000    -0.923000000    -7.116000000
H    -0.402000000    -0.895000000    -6.186000000
H     0.191000000    -1.797000000    -7.247000000
O    -1.669000000     2.899000000    -3.228000000
H    -2.270000000     3.395000000    -3.784000000
H    -2.121000000     2.071000000    -3.066000000
O    -3.375000000    -5.285000000    -1.555000000
H    -3.533000000    -4.470000000    -2.031000000
H    -4.083000000    -5.867000000    -1.835000000
O     4.946000000    -3.196000000     0.297000000
H     4.802000000    -4.009000000    -0.186000000
H     5.873000000    -3.220000000     0.535000000
O     6.814000000     0.743000000     0.682000000
H     6.110000000     0.523000000     0.073000000
H     7.506000000     0.111000000     0.487000000
O    -0.863000000    -1.318000000    -4.585000000
H     0.007000000    -1.006000000    -4.338000000
H    -1.241000000    -1.646000000    -3.769000000
O    -0.656000000     1.632000000     6.705000000
H    -0.316000000     1.343000000     5.858000000
H    -0.930000000     0.825000000     7.140000000
O    -3.593000000     0.973000000    -7.242000000
H    -4.195000000     0.482000000    -7.801000000
H    -3.673000000     0.559000000    -6.382000000
O     4.964000000    -0.680000000    -0.748000000
H     4.818000000    -1.580000000    -0.455000000
H     4.956000000    -0.735000000    -1.704000000
O     1.347000000    -2.745000000     6.705000000
H     1.253000000    -2.535000000     5.776000000
H     1.274000000    -1.900000000     7.150000000
O     0.518000000     0.627000000     4.617000000
H     1.453000000     0.832000000     4.611000000
H     0.458000000    -0.233000000     4.201000000
O     4.223000000     5.010000000     0.661000000
H     4.957000000     4.770000000     0.095000000
H     3.480000000     4.521000000     0.309000000
O     2.099000000     4.107000000     4.079000000
H     2.097000000     4.674000000     4.851000000
H     2.243000000     3.228000000     4.428000000
O    -1.117000000     4.319000000     2.745000000
H    -1.268000000     3.454000000     3.125000000
H    -0.183000000     4.327000000     2.532000000
O     7.651000000     3.115000000     1.387000000
H     7.202000000     3.820000000     0.921000000
H     7.166000000     2.325000000     1.149000000
O    -1.665000000     1.810000000     3.783000000
H    -0.950000000     1.330000000     4.203000000
H    -2.145000000     1.143000000     3.293000000
O     5.650000000     1.731000000     3.057000000
H     6.429000000     2.023000000     3.529000000
H     5.935000000     1.658000000     2.146000000
O    -6.004000000     0.162000000    -2.724000000
H    -5.117000000     0.473000000    -2.547000000
H    -6.245000000     0.583000000    -3.550000000
O    -3.235000000    -3.535000000    -3.612000000
H    -2.388000000    -3.667000000    -4.039000000
H    -3.137000000    -2.711000000    -3.135000000
O    -1.519000000    -6.225000000    -3.240000000
H    -2.118000000    -6.006000000    -2.526000000
H    -0.863000000    -5.528000000    -3.224000000
O    -3.499000000     4.794000000    -1.253000000
H    -2.674000000     5.208000000    -0.999000000
H    -4.169000000     5.443000000    -1.037000000
O    -3.340000000    -2.648000000    -6.772000000
H    -3.131000000    -3.539000000    -6.494000000
H    -3.549000000    -2.186000000    -5.960000000
O     2.758000000    -2.876000000     2.289000000
H     3.207000000    -2.988000000     1.451000000
H     3.411000000    -2.467000000     2.857000000
O    -1.763000000    -4.969000000     0.709000000
H    -1.092000000    -4.372000000     0.380000000
H    -2.258000000    -5.226000000    -0.069000000
O    -6.409000000     1.531000000    -5.141000000
H    -6.706000000     1.663000000    -6.042000000
H    -5.837000000     2.277000000    -4.966000000
O     0.353000000     3.168000000    -5.137000000
H    -0.336000000     3.041000000    -4.485000000
H    -0.051000000     2.910000000    -5.966000000
O     2.668000000    -2.936000000    -2.967000000
H     2.283000000    -2.206000000    -3.451000000
H     3.591000000    -2.702000000    -2.874000000
O    -2.250000000     6.540000000     3.149000000
H    -1.900000000     5.693000000     2.873000000
H    -1.915000000     6.659000000     4.037000000
O    -6.266000000    -2.635000000    -4.134000000
H    -6.012000000    -2.100000000    -3.382000000
H    -5.456000000    -3.066000000    -4.406000000
O     5.162000000    -1.282000000     2.877000000
H     4.503000000    -0.699000000     2.502000000
H     5.764000000    -0.698000000     3.338000000
O    -2.486000000    -0.357000000     2.052000000
H    -2.871000000    -1.173000000     1.733000000
H    -1.885000000    -0.088000000     1.357000000
O     5.652000000     4.894000000     3.366000000
H     5.344000000     4.045000000     3.686000000
H     5.050000000     5.115000000     2.656000000
O     6.090000000    -3.912000000     2.905000000
H     5.881000000    -3.027000000     2.607000000
H     5.244000000    -4.290000000     3.147000000
O    -4.355000000     2.140000000    -0.129000000
H    -3.959000000     1.610000000    -0.821000000
H    -4.353000000     3.031000000    -0.480000000
O     2.554000000     3.473000000    -0.403000000
H     1.816000000     3.863000000    -0.871000000
H     2.202000000     2.663000000    -0.033000000
O     0.691000000    -2.213000000     4.023000000
H     1.284000000    -2.507000000     3.331000000
H    -0.146000000    -2.625000000     3.812000000
O    -4.365000000     3.633000000    -4.040000000
H    -4.448000000     3.987000000    -3.154000000
H    -4.859000000     4.243000000    -4.588000000
O     2.869000000    -5.210000000     3.832000000
H     2.622000000    -4.411000000     3.368000000
H     2.750000000    -5.908000000     3.188000000
O    -0.789000000     6.349000000    -0.069000000
H    -1.368000000     7.024000000     0.284000000
H    -0.122000000     6.227000000     0.607000000
