161
-3026.40927
C    -0.806000000    -1.186000000    -0.149000000
H    -1.424000000    -2.079000000    -0.185000000
C     0.345000000    -1.047000000     0.601000000
H     0.674000000    -1.904000000     1.184000000
C     1.086000000     0.133000000     0.613000000
C     2.293000000     0.142000000     1.565000000
H     3.223000000     0.105000000     0.994000000
H     2.250000000     1.072000000     2.136000000
H     2.302000000    -0.741000000     2.207000000
C     0.597000000     1.255000000    -0.076000000
H     1.218000000     2.144000000    -0.149000000
C    -0.589000000     1.131000000    -0.831000000
H    -0.899000000     1.972000000    -1.447000000
C    -1.284000000    -0.097000000    -0.891000000
C    -2.623000000    -0.274000000    -1.664000000
O    -3.159000000     0.695000000    -2.157000000
O    -3.207000000    -1.317000000    -1.755000000
O    -4.540000000    -1.516000000     0.946000000
H    -4.157000000    -1.810000000     0.119000000
H    -4.520000000    -0.560000000     0.892000000
O    -1.719000000     4.717000000    -2.583000000
H    -1.909000000     5.139000000    -3.421000000
H    -1.066000000     4.050000000    -2.793000000
O    -0.243000000    -6.444000000     0.034000000
H    -0.054000000    -6.183000000     0.935000000
H     0.004000000    -7.368000000    -0.004000000
O    -4.588000000    -3.924000000    -1.560000000
H    -5.380000000    -3.634000000    -2.012000000
H    -3.905000000    -3.328000000    -1.867000000
O     2.566000000     4.061000000     0.177000000
H     2.743000000     4.421000000     1.046000000
H     3.429000000     3.833000000    -0.168000000
O    -7.887000000     1.125000000    -3.870000000
H    -7.955000000     0.303000000    -4.355000000
H    -7.156000000     0.989000000    -3.268000000
O    -1.716000000    -4.439000000    -5.771000000
H    -1.717000000    -5.141000000    -5.120000000
H    -2.351000000    -3.804000000    -5.439000000
O    -2.089000000     1.949000000    -4.213000000
H    -2.613000000     1.623000000    -3.482000000
H    -1.406000000     1.289000000    -4.332000000
O    -3.573000000     3.205000000    -1.206000000
H    -3.441000000     2.353000000    -1.622000000
H    -3.000000000     3.799000000    -1.691000000
O    -1.924000000    -6.105000000    -3.754000000
H    -2.732000000    -6.491000000    -3.416000000
H    -1.630000000    -5.517000000    -3.058000000
O    -1.394000000     7.121000000    -1.395000000
H    -1.492000000     6.204000000    -1.652000000
H    -2.129000000     7.284000000    -0.804000000
O     3.564000000    -1.713000000    -2.337000000
H     4.068000000    -1.769000000    -1.525000000
H     4.019000000    -1.049000000    -2.855000000
O    -0.273000000    -0.332000000    -4.569000000
H    -0.309000000    -0.135000000    -5.505000000
H     0.362000000    -1.045000000    -4.498000000
O     5.774000000    -0.048000000     1.820000000
H     5.920000000    -0.745000000     2.459000000
H     5.541000000    -0.507000000     1.014000000
O    -1.647000000     3.131000000     4.753000000
H    -1.035000000     3.159000000     4.017000000
H    -1.095000000     3.236000000     5.528000000
O     4.787000000    -2.281000000     0.141000000
H     4.907000000    -3.145000000    -0.253000000
H     4.614000000    -2.462000000     1.065000000
O    -5.498000000     1.105000000    -6.664000000
H    -5.192000000     0.334000000    -6.187000000
H    -4.939000000     1.817000000    -6.352000000
O     4.138000000    -3.369000000     4.999000000
H     4.307000000    -2.868000000     5.797000000
H     3.239000000    -3.143000000     4.761000000
O     1.583000000     0.654000000     6.801000000
H     2.232000000     0.256000000     6.220000000
H     1.966000000     1.497000000     7.046000000
O     3.161000000    -5.769000000     1.499000000
H     3.909000000    -6.356000000     1.604000000
H     3.059000000    -5.678000000     0.552000000
O     3.209000000    -0.091000000     4.833000000
H     3.041000000     0.388000000     4.022000000
H     4.158000000    -0.217000000     4.845000000
O     0.740000000     3.432000000    -3.601000000
H     1.363000000     2.816000000    -3.216000000
H     0.769000000     3.247000000    -4.540000000
O     6.902000000    -1.016000000    -1.198000000
H     7.317000000    -1.729000000    -1.683000000
H     6.136000000    -1.418000000    -0.790000000
O     5.201000000     3.047000000     2.056000000
H     5.408000000     2.117000000     2.144000000
H     5.978000000     3.429000000     1.649000000
O    -0.225000000     3.030000000     2.417000000
H    -0.448000000     3.641000000     1.715000000
H     0.687000000     3.231000000     2.629000000
O     1.469000000    -3.287000000    -3.069000000
H     2.290000000    -3.252000000    -2.578000000
H     1.645000000    -2.786000000    -3.865000000
O     3.583000000     2.413000000    -2.779000000
H     3.806000000     2.664000000    -3.675000000
H     3.479000000     1.462000000    -2.815000000
O    -0.211000000     4.854000000     0.308000000
H     0.688000000     4.986000000     0.609000000
H    -0.155000000     4.114000000    -0.297000000
O     5.094000000     3.853000000    -0.731000000
H     4.796000000     3.327000000    -1.473000000
H     6.013000000     3.610000000    -0.618000000
O    -2.644000000    -2.656000000    -3.990000000
H    -2.050000000    -3.257000000    -3.541000000
H    -2.782000000    -1.944000000    -3.366000000
O    -1.098000000    -4.302000000    -2.070000000
H    -0.232000000    -3.949000000    -2.278000000
H    -0.954000000    -4.852000000    -1.300000000
O    -6.365000000     1.764000000     1.299000000
H    -5.495000000     1.371000000     1.231000000
H    -6.370000000     2.451000000     0.632000000
O    -4.459000000    -0.653000000    -4.726000000
H    -4.448000000    -0.216000000    -3.875000000
H    -3.755000000    -1.299000000    -4.673000000
O    -1.157000000    -2.323000000     3.298000000
H    -1.614000000    -1.802000000     3.959000000
H    -1.039000000    -1.724000000     2.561000000
O    -3.556000000    -3.372000000     2.735000000
H    -2.704000000    -3.123000000     3.095000000
H    -3.864000000    -2.586000000     2.285000000
O     6.675000000     1.756000000    -2.042000000
H     6.661000000     0.960000000    -1.509000000
H     7.604000000     1.970000000    -2.127000000
O    -1.119000000     4.011000000    -6.006000000
H    -1.472000000     3.574000000    -5.231000000
H    -1.727000000     3.780000000    -6.709000000
O     1.266000000    -3.070000000     4.095000000
H     1.512000000    -2.150000000     4.193000000
H     0.348000000    -3.045000000     3.824000000
O    -6.911000000    -2.344000000    -2.423000000
H    -6.720000000    -1.656000000    -1.785000000
H    -7.714000000    -2.053000000    -2.855000000
O     1.539000000     5.838000000    -2.273000000
H     1.507000000     5.121000000    -2.906000000
H     1.943000000     5.453000000    -1.495000000
O     4.423000000    -3.334000000     2.416000000
H     4.390000000    -3.344000000     3.373000000
H     4.060000000    -4.180000000     2.155000000
O    -4.550000000    -5.478000000     0.673000000
H    -4.631000000    -4.833000000    -0.029000000
H    -3.709000000    -5.280000000     1.085000000
O    -5.863000000     0.823000000    -1.925000000
H    -4.979000000     0.457000000    -1.943000000
H    -5.794000000     1.589000000    -1.354000000
O    -1.039000000     0.574000000     2.684000000
H    -0.903000000     1.510000000     2.534000000
H    -0.724000000     0.156000000     1.882000000
O    -5.864000000     4.011000000    -0.445000000
H    -6.334000000     4.533000000    -1.094000000
H    -5.010000000     3.846000000    -0.843000000
O     2.518000000     3.786000000     3.150000000
H     3.028000000     3.927000000     3.948000000
H     3.133000000     3.377000000     2.542000000
O     0.880000000    -5.850000000     3.127000000
H     0.940000000    -4.976000000     3.514000000
H     1.613000000    -5.890000000     2.513000000
O    -3.832000000     1.246000000     0.695000000
H    -3.149000000     1.305000000     1.364000000
H    -3.592000000     1.910000000     0.049000000
