161
-3034.90555
C    -0.678000000    -0.903000000     0.991000000
H    -1.098000000    -1.460000000     1.825000000
C     0.204000000     0.148000000     1.314000000
H     0.528000000     0.452000000     2.306000000
C     0.871000000     0.871000000     0.305000000
C     1.856000000     1.929000000     0.540000000
H     1.501000000     2.960000000     0.585000000
H     2.364000000     1.674000000     1.473000000
H     2.611000000     1.991000000    -0.247000000
C     0.537000000     0.636000000    -1.012000000
H     0.923000000     1.274000000    -1.803000000
C    -0.482000000    -0.364000000    -1.374000000
H    -0.761000000    -0.570000000    -2.404000000
C    -1.099000000    -1.147000000    -0.366000000
C    -2.165000000    -2.191000000    -0.632000000
O    -2.245000000    -2.669000000    -1.754000000
O    -2.871000000    -2.633000000     0.254000000
O    -3.119000000    -8.110000000     0.225000000
H    -3.170000000    -8.629000000     1.028000000
H    -3.223000000    -7.205000000     0.519000000
O     4.510000000     1.631000000     4.956000000
H     3.564000000     1.535000000     5.073000000
H     4.880000000     1.412000000     5.811000000
O     0.847000000     5.341000000    -4.803000000
H     1.766000000     5.172000000    -4.592000000
H     0.441000000     4.474000000    -4.810000000
O    -0.955000000     2.992000000    -4.196000000
H    -1.640000000     2.616000000    -4.749000000
H    -0.150000000     2.563000000    -4.487000000
O     0.342000000    -2.709000000    -6.125000000
H    -0.135000000    -2.077000000    -6.662000000
H    -0.295000000    -3.000000000    -5.473000000
O     5.854000000     1.554000000    -3.135000000
H     6.700000000     1.825000000    -3.493000000
H     5.901000000     1.785000000    -2.208000000
O    -4.528000000     2.429000000     4.087000000
H    -5.385000000     2.080000000     4.332000000
H    -4.061000000     1.679000000     3.716000000
O    -0.096000000     3.990000000     4.107000000
H    -0.098000000     3.421000000     4.877000000
H    -0.857000000     3.708000000     3.600000000
O     4.235000000     4.478000000    -1.530000000
H     4.542000000     3.726000000    -1.024000000
H     5.035000000     4.923000000    -1.808000000
O     4.661000000     3.622000000     3.204000000
H     4.548000000     2.841000000     3.746000000
H     3.857000000     4.124000000     3.339000000
O     2.929000000    -0.749000000    -1.170000000
H     3.073000000    -1.540000000    -0.650000000
H     2.068000000    -0.435000000    -0.893000000
O    -0.721000000    -5.535000000     0.232000000
H    -1.384000000    -4.853000000     0.342000000
H    -0.650000000    -5.649000000    -0.716000000
O    -1.173000000    -0.722000000     5.360000000
H    -1.071000000    -1.007000000     6.268000000
H    -1.303000000    -1.533000000     4.868000000
O     1.623000000     1.414000000     5.182000000
H     1.273000000     2.048000000     5.807000000
H     1.058000000     0.647000000     5.278000000
O    -0.933000000    -5.543000000     3.186000000
H    -1.585000000    -6.224000000     3.351000000
H    -0.617000000    -5.723000000     2.300000000
O    -1.738000000     2.761000000    -1.030000000
H    -1.481000000     3.368000000    -1.725000000
H    -1.006000000     2.149000000    -0.963000000
O    -3.857000000    -4.914000000    -2.274000000
H    -4.021000000    -5.511000000    -1.545000000
H    -3.269000000    -4.251000000    -1.913000000
O     1.883000000    -2.869000000     3.746000000
H     2.479000000    -3.604000000     3.890000000
H     2.220000000    -2.438000000     2.961000000
O    -2.250000000     0.373000000    -5.073000000
H    -2.945000000     0.099000000    -4.473000000
H    -2.029000000    -0.421000000    -5.561000000
O    -3.323000000     0.061000000     3.448000000
H    -3.860000000    -0.066000000     4.230000000
H    -2.483000000    -0.342000000     3.667000000
O    -5.266000000     1.421000000    -1.945000000
H    -5.981000000     1.532000000    -2.572000000
H    -4.630000000     0.871000000    -2.402000000
O    -5.386000000    -2.610000000     3.841000000
H    -5.355000000    -2.057000000     3.060000000
H    -6.284000000    -2.526000000     4.159000000
O    -6.582000000     0.283000000     0.185000000
H    -6.228000000     0.715000000    -0.593000000
H    -5.934000000    -0.387000000     0.402000000
O    -0.709000000    -2.986000000     4.251000000
H     0.208000000    -2.737000000     4.369000000
H    -0.676000000    -3.758000000     3.686000000
O     2.649000000     7.295000000     2.015000000
H     3.243000000     6.969000000     1.340000000
H     2.534000000     6.555000000     2.611000000
O    -5.965000000    -5.876000000     1.858000000
H    -6.146000000    -5.883000000     2.798000000
H    -6.789000000    -5.601000000     1.457000000
O     1.581000000     2.154000000    -4.903000000
H     1.850000000     2.353000000    -5.800000000
H     2.206000000     1.492000000    -4.607000000
O    -4.188000000    -0.881000000    -3.727000000
H    -4.229000000    -1.619000000    -3.118000000
H    -4.593000000    -1.211000000    -4.529000000
O    -1.778000000     1.547000000     7.091000000
H    -1.602000000     0.975000000     6.345000000
H    -2.633000000     1.933000000     6.900000000
O    -3.475000000    -5.269000000     0.493000000
H    -3.215000000    -4.351000000     0.571000000
H    -4.396000000    -5.280000000     0.754000000
O    -1.865000000    -2.963000000    -4.555000000
H    -2.748000000    -2.888000000    -4.917000000
H    -2.001000000    -3.119000000    -3.620000000
O    -6.105000000    -2.593000000    -0.939000000
H    -5.745000000    -3.224000000    -1.563000000
H    -5.762000000    -2.873000000    -0.090000000
O    -0.243000000     7.638000000     1.598000000
H     0.655000000     7.462000000     1.317000000
H    -0.782000000     7.377000000     0.851000000
O     5.463000000    -0.233000000    -0.164000000
H     4.569000000    -0.144000000    -0.495000000
H     5.622000000    -1.176000000    -0.156000000
O     3.673000000     5.445000000    -4.138000000
H     3.691000000     6.331000000    -3.774000000
H     3.456000000     4.885000000    -3.393000000
O     2.825000000    -1.044000000    -6.237000000
H     1.980000000    -1.494000000    -6.239000000
H     2.902000000    -0.684000000    -5.353000000
O    -3.342000000    -3.894000000     5.146000000
H    -2.622000000    -3.830000000     4.518000000
H    -4.022000000    -3.322000000     4.790000000
O    -4.861000000    -1.389000000     1.410000000
H    -4.115000000    -1.750000000     0.931000000
H    -4.477000000    -0.726000000     1.985000000
O    -2.824000000    -6.612000000    -4.604000000
H    -3.479000000    -6.227000000    -4.022000000
H    -2.996000000    -7.553000000    -4.571000000
O    -1.716000000     5.357000000    -2.682000000
H    -2.611000000     5.482000000    -2.999000000
H    -1.234000000     5.037000000    -3.445000000
O     4.314000000     5.719000000     0.855000000
H     4.289000000     5.538000000    -0.084000000
H     4.346000000     4.854000000     1.265000000
O    -0.752000000    -5.384000000    -2.437000000
H    -1.339000000    -6.034000000    -2.824000000
H    -1.184000000    -4.545000000    -2.598000000
O     1.232000000     5.938000000    -0.393000000
H     1.623000000     5.086000000    -0.198000000
H     1.443000000     6.093000000    -1.313000000
O     5.866000000     2.566000000    -0.367000000
H     5.701000000     1.641000000    -0.188000000
H     6.506000000     2.828000000     0.295000000
O    -1.720000000     3.261000000     2.199000000
H    -1.393000000     3.458000000     1.321000000
H    -2.066000000     2.372000000     2.132000000
O     2.051000000    -5.287000000    -2.633000000
H     1.878000000    -5.638000000    -3.506000000
H     1.185000000    -5.074000000    -2.285000000
O     3.444000000     0.053000000    -3.792000000
H     3.146000000    -0.400000000    -3.003000000
H     4.275000000     0.454000000    -3.538000000
O     2.398000000     5.093000000     3.691000000
H     2.417000000     5.405000000     4.596000000
H     1.732000000     4.406000000     3.688000000
