161
-3054.40499
C    -0.475000000    -1.262000000     0.709000000
H    -0.705000000    -2.207000000     1.195000000
C     0.448000000    -0.302000000     1.283000000
H     0.674000000    -0.455000000     2.336000000
C     0.892000000     0.767000000     0.490000000
C     1.776000000     1.913000000     0.988000000
H     2.604000000     2.092000000     0.299000000
H     1.257000000     2.873000000     0.956000000
H     2.109000000     1.728000000     2.011000000
C     0.229000000     1.022000000    -0.757000000
H     0.426000000     1.832000000    -1.456000000
C    -0.618000000     0.096000000    -1.253000000
H    -1.017000000     0.333000000    -2.236000000
C    -1.020000000    -1.069000000    -0.540000000
C    -1.951000000    -2.162000000    -1.150000000
O    -2.523000000    -1.929000000    -2.179000000
O    -2.103000000    -3.278000000    -0.699000000
O    -4.644000000    -0.988000000    -5.005000000
H    -5.577000000    -0.885000000    -5.194000000
H    -4.552000000    -0.709000000    -4.095000000
O     3.398000000    -0.300000000     3.538000000
H     2.527000000    -0.290000000     3.934000000
H     3.898000000    -0.918000000     4.072000000
O    -2.628000000     6.072000000     0.091000000
H    -1.918000000     5.479000000    -0.154000000
H    -2.542000000     6.171000000     1.039000000
O    -2.228000000     2.258000000    -7.128000000
H    -1.937000000     2.116000000    -6.227000000
H    -2.401000000     3.198000000    -7.178000000
O    -1.661000000     1.618000000    -4.686000000
H    -0.808000000     1.885000000    -4.345000000
H    -1.614000000     0.663000000    -4.728000000
O    -0.453000000    -7.324000000    -2.279000000
H     0.374000000    -6.975000000    -1.944000000
H    -0.868000000    -6.580000000    -2.715000000
O    -2.081000000     3.775000000     3.080000000
H    -2.058000000     2.915000000     2.660000000
H    -1.621000000     3.648000000     3.910000000
O    -5.721000000     0.454000000    -0.629000000
H    -4.894000000     0.727000000    -1.026000000
H    -6.252000000     0.150000000    -1.365000000
O     1.536000000     6.047000000     0.312000000
H     1.397000000     6.093000000     1.258000000
H     2.471000000     5.866000000     0.216000000
O     4.324000000     5.446000000     0.537000000
H     4.795000000     5.958000000    -0.120000000
H     4.314000000     4.556000000     0.185000000
O    -7.030000000    -1.724000000    -2.221000000
H    -6.356000000    -1.693000000    -2.900000000
H    -6.898000000    -2.570000000    -1.792000000
O     0.491000000     5.493000000     3.082000000
H     0.969000000     4.704000000     3.336000000
H    -0.431000000     5.255000000     3.178000000
O     2.904000000    -0.865000000    -1.130000000
H     2.262000000    -1.107000000    -1.797000000
H     2.525000000    -1.177000000    -0.308000000
O     0.625000000    -7.419000000     2.004000000
H     0.651000000    -7.918000000     1.187000000
H     0.799000000    -6.516000000     1.739000000
O    -1.749000000    -1.282000000     4.286000000
H    -1.613000000    -2.030000000     3.705000000
H    -1.791000000    -1.664000000     5.163000000
O    -2.045000000    -5.929000000     0.137000000
H    -1.373000000    -6.404000000    -0.350000000
H    -2.141000000    -5.101000000    -0.333000000
O    -4.025000000    -6.412000000    -3.977000000
H    -3.215000000    -6.052000000    -3.615000000
H    -4.544000000    -6.653000000    -3.209000000
O    -3.530000000    -3.639000000     1.487000000
H    -4.195000000    -4.310000000     1.336000000
H    -2.996000000    -3.648000000     0.692000000
O     1.227000000    -0.280000000     5.417000000
H     1.173000000     0.019000000     6.324000000
H     0.322000000    -0.478000000     5.176000000
O    -3.953000000    -1.066000000     2.063000000
H    -4.013000000    -1.699000000     1.348000000
H    -3.944000000    -1.600000000     2.857000000
O     6.871000000     3.842000000     1.098000000
H     6.660000000     4.673000000     1.525000000
H     6.785000000     3.188000000     1.791000000
O     0.753000000    -4.597000000    -3.672000000
H     1.563000000    -5.038000000    -3.418000000
H     0.844000000    -4.454000000    -4.615000000
O    -2.774000000     1.989000000    -0.492000000
H    -2.794000000     1.341000000     0.212000000
H    -1.892000000     2.359000000    -0.452000000
O     4.002000000     4.069000000     4.250000000
H     4.568000000     3.648000000     4.897000000
H     3.139000000     4.090000000     4.665000000
O    -1.273000000    -1.412000000    -4.420000000
H    -1.831000000    -1.765000000    -3.727000000
H    -1.725000000    -1.642000000    -5.232000000
O    -0.493000000     4.513000000    -0.838000000
H     0.195000000     5.055000000    -0.452000000
H    -0.506000000     4.765000000    -1.761000000
O     0.737000000    -4.379000000     2.513000000
H    -0.188000000    -4.333000000     2.753000000
H     1.199000000    -4.029000000     3.275000000
O     0.953000000    -3.956000000    -0.229000000
H     0.860000000    -3.915000000     0.723000000
H     0.330000000    -3.308000000    -0.558000000
O    -2.726000000    -0.941000000    -6.880000000
H    -3.153000000    -1.790000000    -6.994000000
H    -3.090000000    -0.597000000    -6.064000000
O    -3.891000000     0.171000000    -2.554000000
H    -3.339000000     0.732000000    -2.009000000
H    -3.468000000    -0.687000000    -2.521000000
O     0.914000000     2.498000000    -3.997000000
H     1.625000000     2.421000000    -3.360000000
H     1.303000000     2.218000000    -4.825000000
O     1.303000000    -3.184000000     4.999000000
H     1.219000000    -3.699000000     5.802000000
H     1.536000000    -2.306000000     5.302000000
O    -1.864000000    -4.948000000    -2.867000000
H    -2.047000000    -4.223000000    -2.269000000
H    -1.046000000    -4.701000000    -3.299000000
O    -4.708000000    -3.149000000    -2.979000000
H    -4.022000000    -2.678000000    -2.506000000
H    -4.316000000    -3.352000000    -3.829000000
O    -2.794000000    -6.707000000     2.906000000
H    -2.639000000    -6.595000000     1.968000000
H    -1.923000000    -6.839000000     3.279000000
O     1.579000000     1.325000000    -6.293000000
H     1.559000000     0.411000000    -6.008000000
H     1.053000000     1.338000000    -7.092000000
O    -1.826000000    -4.039000000     3.597000000
H    -2.664000000    -4.166000000     3.153000000
H    -2.027000000    -4.157000000     4.526000000
O    -6.363000000    -4.374000000    -1.360000000
H    -6.730000000    -5.114000000    -1.844000000
H    -5.660000000    -4.046000000    -1.922000000
O     5.184000000    -0.131000000     0.477000000
H     4.955000000     0.492000000     1.166000000
H     4.436000000    -0.114000000    -0.120000000
O    -4.322000000     2.670000000    -4.846000000
H    -3.381000000     2.505000000    -4.778000000
H    -4.710000000     2.128000000    -4.159000000
O     5.089000000     3.333000000    -1.101000000
H     5.681000000     3.534000000    -1.827000000
H     5.664000000     3.245000000    -0.341000000
O     1.048000000    -1.526000000    -3.307000000
H     0.162000000    -1.577000000    -3.666000000
H     1.620000000    -1.701000000    -4.054000000
O     3.680000000     7.034000000     3.162000000
H     3.505000000     6.115000000     2.962000000
H     3.741000000     7.458000000     2.306000000
O     5.005000000     1.705000000     2.530000000
H     4.442000000     2.455000000     2.724000000
H     4.444000000     0.942000000     2.671000000
O     3.326000000     2.219000000    -2.838000000
H     3.812000000     2.661000000    -2.142000000
H     3.634000000     1.314000000    -2.808000000
O    -2.278000000     1.128000000     2.316000000
H    -2.967000000     0.470000000     2.413000000
H    -1.529000000     0.762000000     2.785000000
O     0.382000000     5.377000000    -4.025000000
H     0.832000000     4.534000000    -4.080000000
H     1.087000000     6.021000000    -3.951000000
O     1.872000000     3.606000000     6.161000000
H     0.953000000     3.341000000     6.133000000
H     2.274000000     3.010000000     6.792000000
