161
-3045.44241
C     0.135000000     1.332000000     0.642000000
H     0.080000000     2.341000000     1.042000000
C    -0.428000000     1.054000000    -0.591000000
H    -0.843000000     1.930000000    -1.083000000
C    -0.502000000    -0.222000000    -1.157000000
C    -1.102000000    -0.537000000    -2.502000000
H    -0.721000000     0.092000000    -3.310000000
H    -0.926000000    -1.605000000    -2.651000000
H    -2.179000000    -0.358000000    -2.480000000
C    -0.049000000    -1.238000000    -0.369000000
H    -0.056000000    -2.224000000    -0.826000000
C     0.540000000    -1.048000000     0.964000000
H     0.927000000    -1.810000000     1.635000000
C     0.656000000     0.301000000     1.460000000
C     1.322000000     0.588000000     2.717000000
O     1.752000000    -0.317000000     3.397000000
O     1.392000000     1.725000000     3.119000000
O     2.436000000    -1.369000000    -2.863000000
H     3.046000000    -1.225000000    -3.587000000
H     2.364000000    -2.321000000    -2.797000000
O    -0.029000000     4.175000000    -3.627000000
H    -0.317000000     3.262000000    -3.621000000
H     0.697000000     4.192000000    -4.252000000
O    -0.859000000     2.966000000     4.239000000
H    -1.125000000     3.570000000     3.546000000
H    -0.042000000     2.582000000     3.921000000
O     0.216000000     2.230000000    -6.718000000
H     0.492000000     3.143000000    -6.802000000
H    -0.317000000     2.214000000    -5.923000000
O    -1.544000000    -4.973000000    -1.280000000
H    -0.724000000    -4.963000000    -1.774000000
H    -1.281000000    -4.802000000    -0.376000000
O    -0.868000000     4.578000000     6.551000000
H    -0.127000000     4.663000000     7.151000000
H    -0.595000000     3.904000000     5.928000000
O    -0.391000000    -4.199000000     1.167000000
H    -0.615000000    -5.006000000     1.630000000
H    -0.869000000    -3.514000000     1.634000000
O    -3.892000000     5.246000000    -2.461000000
H    -4.310000000     5.175000000    -3.319000000
H    -3.960000000     4.367000000    -2.087000000
O    -7.697000000     0.135000000    -2.399000000
H    -7.684000000    -0.812000000    -2.538000000
H    -6.884000000     0.319000000    -1.928000000
O     1.478000000     5.862000000     3.159000000
H     1.592000000     5.316000000     3.936000000
H     1.064000000     6.661000000     3.486000000
O     1.067000000    -0.112000000    -7.224000000
H     0.779000000    -0.182000000    -8.135000000
H     0.799000000     0.767000000    -6.956000000
O     0.896000000    -5.430000000     4.879000000
H     1.036000000    -4.625000000     4.382000000
H     1.670000000    -5.507000000     5.436000000
O     1.708000000     0.119000000     6.135000000
H     1.802000000     0.348000000     5.210000000
H     2.603000000    -0.036000000     6.436000000
O     4.381000000    -0.090000000     6.745000000
H     4.907000000     0.674000000     6.982000000
H     4.966000000    -0.628000000     6.211000000
O     1.334000000    -2.478000000    -5.883000000
H     2.266000000    -2.641000000    -5.736000000
H     1.300000000    -1.596000000    -6.252000000
O    -0.871000000     4.949000000     1.898000000
H     0.001000000     5.083000000     2.271000000
H    -1.055000000     5.758000000     1.422000000
O    -3.657000000    -1.948000000     0.549000000
H    -4.464000000    -2.090000000     1.043000000
H    -3.189000000    -1.274000000     1.044000000
O    -1.394000000     6.318000000    -3.081000000
H    -0.881000000     5.510000000    -3.063000000
H    -2.303000000     6.026000000    -3.008000000
O    -3.385000000     3.624000000     2.781000000
H    -3.594000000     4.237000000     3.485000000
H    -2.540000000     3.924000000     2.445000000
O     3.293000000     5.418000000     0.849000000
H     3.220000000     4.849000000     0.083000000
H     2.825000000     4.950000000     1.540000000
O    -4.000000000    -3.456000000    -1.767000000
H    -3.905000000    -2.934000000    -0.970000000
H    -3.215000000    -4.003000000    -1.790000000
O    -0.013000000    -7.588000000    -0.725000000
H     0.829000000    -7.135000000    -0.758000000
H    -0.623000000    -6.935000000    -0.381000000
O    -2.052000000     2.342000000    -4.894000000
H    -2.671000000     1.636000000    -5.078000000
H    -2.593000000     3.053000000    -4.550000000
O    -5.385000000    -0.120000000    -0.741000000
H    -4.659000000    -0.743000000    -0.725000000
H    -5.151000000     0.538000000    -0.086000000
O    -0.713000000    -3.782000000    -4.792000000
H    -0.058000000    -3.135000000    -5.051000000
H    -0.310000000    -4.252000000    -4.061000000
O     5.946000000     3.234000000     4.424000000
H     5.329000000     2.950000000     3.750000000
H     6.686000000     2.633000000     4.341000000
O    -4.464000000     2.336000000    -3.311000000
H    -4.221000000     1.488000000    -3.682000000
H    -5.226000000     2.612000000    -3.821000000
O     3.493000000     3.595000000    -1.302000000
H     4.283000000     3.183000000    -0.951000000
H     2.913000000     2.862000000    -1.508000000
O    -3.353000000     1.225000000     5.218000000
H    -3.565000000     1.916000000     5.845000000
H    -2.788000000     1.651000000     4.574000000
O     2.967000000    -3.436000000     6.605000000
H     3.852000000    -3.517000000     6.250000000
H     2.736000000    -4.324000000     6.877000000
O    -4.444000000     1.431000000     1.290000000
H    -4.327000000     2.174000000     1.881000000
H    -3.855000000     0.758000000     1.631000000
O     2.414000000    -3.532000000     0.030000000
H     2.277000000    -2.891000000    -0.668000000
H     1.577000000    -3.564000000     0.494000000
O    -2.329000000    -0.139000000     2.052000000
H    -1.799000000     0.205000000     1.333000000
H    -1.733000000    -0.711000000     2.536000000
O    -0.341000000     1.932000000     7.788000000
H     0.242000000     1.730000000     7.056000000
H    -0.469000000     1.093000000     8.230000000
O     2.325000000     4.099000000     5.014000000
H     2.187000000     3.216000000     4.670000000
H     3.238000000     4.104000000     5.302000000
O     4.087000000    -3.730000000     2.366000000
H     3.850000000    -3.872000000     1.450000000
H     4.052000000    -2.780000000     2.478000000
O    -1.178000000    -2.540000000     3.385000000
H    -1.792000000    -2.355000000     4.096000000
H    -0.328000000    -2.618000000     3.817000000
O     1.332000000    -2.561000000     4.461000000
H     1.477000000    -1.681000000     4.114000000
H     1.887000000    -2.606000000     5.240000000
O     4.044000000     2.293000000     2.551000000
H     4.119000000     1.979000000     1.650000000
H     3.185000000     1.985000000     2.842000000
O     2.207000000     1.301000000    -1.638000000
H     1.352000000     1.145000000    -1.237000000
H     2.478000000     0.443000000    -1.965000000
O     3.516000000    -3.906000000    -2.509000000
H     3.351000000    -4.300000000    -1.653000000
H     3.574000000    -4.650000000    -3.109000000
O    -0.439000000    -2.331000000     7.065000000
H     0.212000000    -1.949000000     6.476000000
H    -1.264000000    -2.264000000     6.584000000
O     4.559000000    -0.888000000     2.769000000
H     3.692000000    -0.651000000     3.097000000
H     5.030000000    -1.202000000     3.541000000
O    -3.413000000    -2.392000000    -4.392000000
H    -2.583000000    -2.816000000    -4.612000000
H    -3.608000000    -2.694000000    -3.505000000
O     0.715000000    -5.983000000    -3.118000000
H     0.539000000    -6.924000000    -3.118000000
H     1.558000000    -5.898000000    -3.563000000
O     2.304000000     3.044000000    -4.542000000
H     2.253000000     2.279000000    -3.968000000
H     2.734000000     2.721000000    -5.333000000
O     4.369000000    -0.143000000     0.198000000
H     3.567000000    -0.584000000    -0.083000000
H     4.576000000    -0.541000000     1.044000000
O    -3.607000000     0.307000000    -5.131000000
H    -3.423000000    -0.529000000    -4.701000000
H    -3.685000000     0.087000000    -6.059000000
