161
-3032.44649
C     0.247000000    -1.399000000    -0.264000000
H     0.297000000    -2.485000000    -0.243000000
C    -0.781000000    -0.901000000     0.521000000
H    -1.437000000    -1.636000000     0.981000000
C    -0.919000000     0.486000000     0.732000000
C    -1.840000000     0.933000000     1.781000000
H    -2.857000000     0.559000000     1.645000000
H    -1.407000000     0.771000000     2.770000000
H    -1.907000000     2.023000000     1.774000000
C    -0.063000000     1.325000000    -0.017000000
H    -0.254000000     2.395000000    -0.019000000
C     0.885000000     0.824000000    -0.865000000
H     1.472000000     1.503000000    -1.478000000
C     1.144000000    -0.537000000    -0.935000000
C     2.188000000    -1.132000000    -1.839000000
O     3.054000000    -0.413000000    -2.345000000
O     2.170000000    -2.311000000    -2.201000000
O     2.868000000    -3.258000000    -5.712000000
H     3.228000000    -2.523000000    -5.215000000
H     3.355000000    -4.020000000    -5.397000000
O    -5.515000000     4.003000000     3.649000000
H    -5.236000000     3.405000000     2.955000000
H    -6.179000000     3.513000000     4.134000000
O     5.070000000     2.439000000    -4.992000000
H     4.142000000     2.495000000    -4.764000000
H     5.088000000     1.924000000    -5.799000000
O    -4.224000000    -2.128000000    -1.837000000
H    -3.584000000    -1.417000000    -1.814000000
H    -3.793000000    -2.853000000    -1.385000000
O     2.441000000    -4.827000000    -2.985000000
H     1.796000000    -4.886000000    -2.281000000
H     2.486000000    -3.894000000    -3.192000000
O    -5.794000000     0.107000000     3.136000000
H    -5.038000000    -0.042000000     3.703000000
H    -5.700000000    -0.539000000     2.436000000
O    -6.223000000    -1.597000000     1.037000000
H    -5.359000000    -2.006000000     0.985000000
H    -6.485000000    -1.476000000     0.124000000
O    -0.803000000    -4.574000000     1.770000000
H    -0.762000000    -4.322000000     2.692000000
H    -0.653000000    -5.520000000     1.774000000
O     0.920000000     3.979000000     2.539000000
H     0.925000000     3.078000000     2.861000000
H     0.971000000     3.894000000     1.587000000
O     3.105000000     0.635000000    -6.366000000
H     3.365000000     0.194000000    -5.558000000
H     2.223000000     0.308000000    -6.545000000
O     2.434000000     1.837000000    -3.770000000
H     1.734000000     1.328000000    -4.178000000
H     2.818000000     1.242000000    -3.125000000
O     5.728000000    -0.876000000    -6.756000000
H     5.760000000     0.074000000    -6.864000000
H     5.058000000    -1.019000000    -6.087000000
O    -3.359000000    -1.573000000     3.972000000
H    -3.454000000    -0.810000000     4.542000000
H    -2.422000000    -1.765000000     3.983000000
O    -2.767000000    -4.149000000    -0.965000000
H    -3.156000000    -5.013000000    -0.826000000
H    -1.828000000    -4.319000000    -1.043000000
O    -3.807000000     4.844000000    -0.461000000
H    -4.500000000     5.138000000     0.130000000
H    -2.995000000     5.098000000    -0.022000000
O     1.442000000     7.515000000    -1.408000000
H     2.220000000     7.637000000    -1.952000000
H     1.168000000     6.614000000    -1.580000000
O    -0.534000000    -2.274000000     4.542000000
H     0.113000000    -1.569000000     4.504000000
H    -0.100000000    -2.970000000     5.035000000
O     6.084000000    -3.627000000    -4.111000000
H     6.026000000    -3.687000000    -3.158000000
H     7.021000000    -3.543000000    -4.289000000
O     4.934000000     1.284000000    -1.515000000
H     4.393000000     0.605000000    -1.918000000
H     5.766000000     0.848000000    -1.330000000
O    -1.582000000    -5.254000000    -3.850000000
H    -1.166000000    -5.593000000    -3.057000000
H    -1.052000000    -5.604000000    -4.566000000
O     6.472000000    -2.158000000    -1.176000000
H     5.624000000    -2.160000000    -0.732000000
H     6.674000000    -1.231000000    -1.300000000
O     1.750000000    -0.898000000     2.853000000
H     2.161000000    -1.762000000     2.814000000
H     1.165000000    -0.877000000     2.096000000
O     2.399000000     3.719000000    -0.207000000
H     3.054000000     3.033000000    -0.333000000
H     2.895000000     4.536000000    -0.268000000
O    -1.099000000     1.898000000     4.698000000
H    -1.417000000     2.776000000     4.490000000
H    -0.146000000     1.979000000     4.685000000
O    -3.808000000    -3.157000000     1.620000000
H    -3.380000000    -2.714000000     2.353000000
H    -3.104000000    -3.641000000     1.189000000
O     2.795000000    -5.527000000     1.175000000
H     2.181000000    -6.255000000     1.076000000
H     3.640000000    -5.889000000     0.910000000
O    -1.584000000     3.326000000    -3.225000000
H    -2.235000000     3.419000000    -2.529000000
H    -2.053000000     3.563000000    -4.025000000
O    -1.175000000     2.512000000     7.411000000
H    -0.465000000     3.139000000     7.274000000
H    -1.400000000     2.207000000     6.532000000
O    -4.778000000     2.891000000    -1.787000000
H    -5.192000000     3.412000000    -2.476000000
H    -4.577000000     3.524000000    -1.097000000
O     4.053000000    -6.851000000    -3.118000000
H     4.396000000    -7.344000000    -2.373000000
H     3.524000000    -6.157000000    -2.723000000
O    -0.155000000     2.063000000    -5.151000000
H    -0.168000000     1.148000000    -4.872000000
H    -0.289000000     2.561000000    -4.344000000
O     2.983000000    -3.263000000     2.650000000
H     3.908000000    -3.216000000     2.893000000
H     2.908000000    -4.079000000     2.154000000
O     1.647000000    -0.023000000     6.207000000
H     1.038000000    -0.014000000     6.946000000
H     1.844000000    -0.950000000     6.071000000
O     4.010000000    -3.152000000    -0.448000000
H     3.445000000    -3.538000000     0.221000000
H     3.404000000    -2.798000000    -1.098000000
O    -0.238000000    -2.608000000    -3.247000000
H    -0.638000000    -3.473000000    -3.339000000
H     0.623000000    -2.781000000    -2.866000000
O     0.862000000     4.995000000    -2.250000000
H     1.135000000     4.321000000    -1.627000000
H    -0.080000000     4.861000000    -2.350000000
O    -1.652000000     6.007000000     3.414000000
H    -2.170000000     6.611000000     2.882000000
H    -2.289000000     5.600000000     4.002000000
O    -1.109000000     4.976000000     0.685000000
H    -0.905000000     5.898000000     0.526000000
H    -0.878000000     4.835000000     1.603000000
O     0.123000000    -6.380000000    -1.674000000
H     0.605000000    -6.923000000    -2.297000000
H     0.378000000    -6.716000000    -0.815000000
O     0.395000000    -0.573000000    -4.962000000
H     0.038000000    -1.125000000    -5.659000000
H     0.513000000    -1.169000000    -4.222000000
O     3.941000000     0.245000000     3.586000000
H     4.208000000    -0.199000000     4.390000000
H     3.062000000    -0.089000000     3.407000000
O     1.563000000     2.040000000     4.509000000
H     1.513000000     1.220000000     5.000000000
H     2.262000000     1.895000000     3.871000000
O    -3.856000000     0.921000000     5.192000000
H    -3.096000000     1.467000000     5.390000000
H    -4.533000000     1.224000000     5.797000000
O     1.196000000     6.436000000     3.243000000
H     0.274000000     6.564000000     3.466000000
H     1.273000000     5.498000000     3.072000000
O    -1.915000000    -0.508000000    -2.271000000
H    -1.207000000    -1.108000000    -2.503000000
H    -1.614000000    -0.079000000    -1.471000000
O     4.388000000    -1.246000000    -4.477000000
H     3.968000000    -1.054000000    -3.639000000
H     4.842000000    -2.077000000    -4.332000000
O     1.989000000     4.244000000    -5.053000000
H     1.867000000     3.308000000    -4.895000000
H     1.780000000     4.658000000    -4.216000000
O    -5.651000000     2.326000000     1.350000000
H    -5.818000000     1.478000000     1.762000000
H    -5.175000000     2.112000000     0.548000000
