161
-3031.63879
C     1.167000000    -0.528000000     0.767000000
H     1.978000000    -0.761000000     1.453000000
C     0.458000000     0.682000000     1.004000000
H     0.747000000     1.389000000     1.777000000
C    -0.665000000     1.019000000     0.239000000
C    -1.352000000     2.332000000     0.531000000
H    -1.471000000     2.813000000    -0.442000000
H    -2.327000000     2.031000000     0.920000000
H    -0.863000000     2.982000000     1.260000000
C    -1.125000000     0.173000000    -0.737000000
H    -2.045000000     0.388000000    -1.275000000
C    -0.354000000    -0.972000000    -1.047000000
H    -0.703000000    -1.605000000    -1.858000000
C     0.827000000    -1.315000000    -0.332000000
C     1.662000000    -2.544000000    -0.654000000
O     1.719000000    -2.993000000    -1.756000000
O     2.340000000    -3.096000000     0.157000000
O    -0.378000000     0.561000000    -5.022000000
H    -0.905000000    -0.228000000    -5.146000000
H     0.491000000     0.321000000    -5.343000000
O    -0.196000000    -4.833000000    -2.363000000
H    -0.448000000    -4.891000000    -3.285000000
H     0.532000000    -4.212000000    -2.353000000
O     0.629000000     3.785000000     5.015000000
H    -0.314000000     3.619000000     5.022000000
H     0.870000000     3.834000000     5.940000000
O     0.170000000    -4.876000000     4.367000000
H     0.762000000    -4.482000000     3.726000000
H     0.675000000    -4.892000000     5.180000000
O     1.613000000    -0.815000000     4.109000000
H     1.745000000    -0.561000000     5.022000000
H     0.669000000    -0.952000000     4.032000000
O     4.957000000     0.629000000     0.135000000
H     5.013000000    -0.293000000     0.387000000
H     5.599000000     0.725000000    -0.568000000
O    -0.755000000     0.038000000     5.941000000
H    -0.835000000     0.968000000     5.732000000
H    -1.365000000    -0.099000000     6.665000000
O     0.427000000     2.128000000    -2.489000000
H     0.058000000     1.577000000    -1.799000000
H    -0.036000000     1.860000000    -3.283000000
O     4.826000000    -5.425000000     2.479000000
H     5.434000000    -5.333000000     1.745000000
H     5.364000000    -5.769000000     3.193000000
O     4.624000000    -1.993000000     1.540000000
H     5.301000000    -2.635000000     1.327000000
H     3.821000000    -2.361000000     1.172000000
O    -4.724000000    -1.683000000     1.272000000
H    -4.615000000    -0.753000000     1.069000000
H    -3.835000000    -1.997000000     1.437000000
O     1.628000000    -2.651000000    -4.319000000
H     1.626000000    -2.895000000    -3.394000000
H     0.974000000    -3.223000000    -4.720000000
O     4.874000000     2.221000000     2.287000000
H     4.782000000     1.676000000     1.506000000
H     4.902000000     1.598000000     3.013000000
O    -4.550000000     2.909000000     3.625000000
H    -4.401000000     1.964000000     3.670000000
H    -4.798000000     3.068000000     2.714000000
O    -2.097000000    -2.419000000     1.284000000
H    -1.546000000    -3.140000000     0.980000000
H    -1.705000000    -1.638000000     0.895000000
O     1.838000000    -6.925000000     0.029000000
H     2.204000000    -7.627000000    -0.509000000
H     2.438000000    -6.190000000    -0.096000000
O    -7.228000000     0.497000000     2.508000000
H    -6.834000000     0.164000000     3.315000000
H    -6.552000000     0.371000000     1.842000000
O     3.049000000     2.603000000    -0.211000000
H     2.373000000     1.927000000    -0.265000000
H     3.874000000     2.120000000    -0.235000000
O     1.426000000     7.152000000     1.680000000
H     1.729000000     7.665000000     2.429000000
H     1.758000000     6.269000000     1.844000000
O    -2.851000000     4.555000000    -3.580000000
H    -2.114000000     4.890000000    -4.090000000
H    -3.027000000     3.690000000    -3.952000000
O    -4.731000000     1.206000000     0.273000000
H    -5.172000000     2.022000000     0.510000000
H    -5.143000000     0.941000000    -0.549000000
O     2.494000000     0.100000000    -5.151000000
H     2.626000000    -0.629000000    -4.545000000
H     2.689000000     0.881000000    -4.632000000
O     1.791000000    -7.232000000     2.870000000
H     1.509000000    -6.351000000     3.116000000
H     1.648000000    -7.274000000     1.924000000
O    -3.330000000     4.670000000    -0.118000000
H    -3.336000000     3.738000000     0.096000000
H    -2.511000000     4.997000000     0.256000000
O     6.177000000    -4.308000000     0.459000000
H     6.900000000    -3.863000000     0.018000000
H     5.934000000    -5.017000000    -0.137000000
O    -5.348000000    -3.533000000    -0.889000000
H    -6.278000000    -3.735000000    -0.987000000
H    -5.329000000    -2.747000000    -0.343000000
O     3.689000000    -2.916000000     4.698000000
H     4.604000000    -3.050000000     4.450000000
H     3.252000000    -2.675000000     3.881000000
O    -0.606000000    -7.655000000    -2.982000000
H    -0.251000000    -6.833000000    -2.643000000
H    -0.171000000    -7.773000000    -3.826000000
O    -1.943000000     2.775000000     4.734000000
H    -2.637000000     3.421000000     4.604000000
H    -2.334000000     1.945000000     4.463000000
O    -3.722000000    -2.341000000    -2.827000000
H    -3.019000000    -2.956000000    -3.037000000
H    -4.128000000    -2.701000000    -2.038000000
O     1.917000000     4.574000000     1.798000000
H     2.348000000     3.903000000     1.269000000
H     2.050000000     4.290000000     2.702000000
O     2.140000000    -4.286000000     2.596000000
H     3.066000000    -4.513000000     2.684000000
H     2.090000000    -3.799000000     1.773000000
O     4.116000000    -0.171000000     3.525000000
H     3.187000000    -0.396000000     3.574000000
H     4.477000000    -0.783000000     2.883000000
O     3.230000000     4.019000000     4.258000000
H     2.314000000     4.138000000     4.507000000
H     3.642000000     3.637000000     5.033000000
O     3.496000000    -5.228000000    -1.119000000
H     2.934000000    -5.286000000    -1.891000000
H     3.117000000    -4.520000000    -0.599000000
O    -0.534000000    -4.640000000    -5.117000000
H    -1.482000000    -4.539000000    -5.212000000
H    -0.200000000    -4.624000000    -6.014000000
O    -3.039000000     2.096000000    -4.689000000
H    -3.778000000     1.505000000    -4.829000000
H    -2.292000000     1.642000000    -5.079000000
O    -3.343000000     0.521000000     4.217000000
H    -2.719000000     0.003000000     4.726000000
H    -4.144000000    -0.002000000     4.214000000
O     4.351000000    -1.948000000    -1.972000000
H     3.602000000    -2.469000000    -1.683000000
H     5.068000000    -2.578000000    -2.044000000
O     5.095000000    -3.268000000    -4.588000000
H     4.365000000    -2.909000000    -4.082000000
H     5.003000000    -4.217000000    -4.500000000
O    -0.529000000    -4.719000000     0.552000000
H    -0.091000000    -4.920000000    -0.275000000
H     0.071000000    -5.039000000     1.225000000
O    -2.619000000    -0.991000000    -5.201000000
H    -2.999000000    -1.519000000    -5.903000000
H    -2.988000000    -1.360000000    -4.398000000
O     4.989000000     0.549000000    -3.391000000
H     4.513000000     0.120000000    -2.680000000
H     4.478000000     1.336000000    -3.580000000
O     2.650000000    -6.057000000    -3.588000000
H     2.360000000    -5.567000000    -4.358000000
H     3.606000000    -6.026000000    -3.631000000
O     1.559000000     4.680000000    -1.693000000
H     2.005000000     4.156000000    -1.028000000
H     1.002000000     4.054000000    -2.157000000
O    -5.922000000     3.711000000     1.213000000
H    -6.325000000     4.227000000     1.912000000
H    -5.638000000     4.359000000     0.570000000
O    -3.496000000     7.148000000     0.812000000
H    -2.595000000     7.383000000     1.032000000
H    -3.412000000     6.521000000     0.094000000
O    -0.829000000     5.472000000     1.035000000
H     0.059000000     5.760000000     0.824000000
H    -0.754000000     4.523000000     1.136000000
