161
-3052.83936
C     1.500000000    -0.029000000    -0.471000000
H     2.519000000     0.101000000    -0.827000000
C     0.656000000     1.158000000    -0.298000000
H     1.033000000     2.160000000    -0.488000000
C    -0.685000000     1.037000000     0.099000000
C    -1.572000000     2.225000000     0.321000000
H    -1.261000000     2.823000000     1.180000000
H    -1.703000000     2.761000000    -0.621000000
H    -2.592000000     1.871000000     0.489000000
C    -1.196000000    -0.193000000     0.348000000
H    -2.179000000    -0.329000000     0.792000000
C    -0.402000000    -1.340000000     0.189000000
H    -0.861000000    -2.282000000     0.477000000
C     0.889000000    -1.287000000    -0.274000000
C     1.766000000    -2.531000000    -0.255000000
O     1.188000000    -3.618000000     0.045000000
O     2.904000000    -2.523000000    -0.698000000
O    -2.594000000     6.295000000    -0.129000000
H    -2.504000000     5.881000000    -0.988000000
H    -3.463000000     6.695000000    -0.146000000
O     0.183000000    -2.212000000    -3.228000000
H     0.816000000    -1.692000000    -2.732000000
H     0.270000000    -3.097000000    -2.873000000
O     0.604000000    -8.798000000    -0.835000000
H     0.356000000    -9.280000000    -0.047000000
H     0.117000000    -7.975000000    -0.776000000
O     4.130000000     3.503000000    -1.809000000
H     3.566000000     3.647000000    -1.050000000
H     4.160000000     4.352000000    -2.251000000
O    -4.151000000     4.642000000     1.295000000
H    -3.468000000     5.207000000     0.934000000
H    -4.380000000     4.053000000     0.577000000
O    -6.074000000    -1.403000000     4.416000000
H    -5.851000000    -0.484000000     4.568000000
H    -5.606000000    -1.634000000     3.614000000
O     5.483000000    -6.120000000    -1.176000000
H     5.107000000    -6.556000000    -0.411000000
H     6.061000000    -5.450000000    -0.810000000
O     0.105000000     6.378000000     0.464000000
H    -0.012000000     7.327000000     0.419000000
H    -0.778000000     6.022000000     0.361000000
O     0.340000000     2.142000000    -3.787000000
H     1.187000000     1.722000000    -3.932000000
H     0.551000000     2.954000000    -3.326000000
O     3.050000000    -3.909000000     4.242000000
H     2.684000000    -3.072000000     4.527000000
H     2.572000000    -4.117000000     3.439000000
O    -6.708000000     4.628000000     1.532000000
H    -5.769000000     4.596000000     1.716000000
H    -7.101000000     4.056000000     2.192000000
O    -1.405000000    -0.374000000     3.495000000
H    -0.786000000    -1.081000000     3.680000000
H    -1.125000000    -0.027000000     2.648000000
O    -2.718000000     5.241000000    -2.568000000
H    -3.299000000     4.552000000    -2.889000000
H    -2.502000000     5.755000000    -3.346000000
O     2.340000000     4.901000000     0.050000000
H     2.894000000     4.906000000     0.830000000
H     1.756000000     5.651000000     0.165000000
O     5.377000000     1.176000000    -1.026000000
H     4.908000000     1.925000000    -1.395000000
H     4.879000000     0.413000000    -1.319000000
O    -4.332000000     3.837000000     4.156000000
H    -3.656000000     4.398000000     4.536000000
H    -4.332000000     4.059000000     3.225000000
O     2.637000000     3.614000000     3.934000000
H     2.767000000     4.117000000     3.130000000
H     2.248000000     4.237000000     4.547000000
O    -1.050000000    -5.333000000     0.448000000
H    -1.822000000    -4.771000000     0.515000000
H    -0.324000000    -4.726000000     0.301000000
O    -6.063000000    -3.327000000     0.264000000
H    -5.826000000    -2.490000000    -0.134000000
H    -6.764000000    -3.111000000     0.878000000
O     0.957000000     4.646000000    -2.737000000
H     1.080000000     5.595000000    -2.758000000
H     1.469000000     4.355000000    -1.982000000
O    -2.184000000    -7.621000000    -0.180000000
H    -2.337000000    -7.965000000     0.700000000
H    -1.851000000    -6.736000000    -0.037000000
O    -1.681000000    -0.047000000    -3.036000000
H    -1.226000000     0.757000000    -2.787000000
H    -1.122000000    -0.751000000    -2.705000000
O     2.831000000     0.993000000    -4.255000000
H     3.611000000     1.524000000    -4.093000000
H     3.113000000     0.094000000    -4.087000000
O    -3.421000000    -1.839000000     2.582000000
H    -2.723000000    -1.332000000     2.996000000
H    -3.124000000    -2.747000000     2.639000000
O    -7.301000000     1.240000000     0.794000000
H    -7.753000000     1.115000000    -0.041000000
H    -7.886000000     1.803000000     1.300000000
O    -4.119000000     0.760000000     4.885000000
H    -3.221000000     0.688000000     5.208000000
H    -4.132000000     1.582000000     4.394000000
O    -4.477000000     3.042000000    -3.002000000
H    -4.883000000     3.081000000    -2.136000000
H    -4.037000000     2.192000000    -3.022000000
O    -5.342000000     2.969000000    -0.344000000
H    -5.741000000     2.101000000    -0.281000000
H    -6.003000000     3.563000000     0.013000000
O    -2.671000000    -4.620000000     3.125000000
H    -3.503000000    -5.086000000     3.203000000
H    -2.021000000    -5.230000000     3.475000000
O     5.264000000     2.400000000    -4.341000000
H     5.229000000     3.339000000    -4.527000000
H     5.181000000     2.342000000    -3.389000000
O     2.770000000    -5.517000000    -4.889000000
H     1.936000000    -5.057000000    -4.988000000
H     2.953000000    -5.481000000    -3.950000000
O    -3.740000000    -4.746000000     0.416000000
H    -3.836000000    -5.113000000     1.295000000
H    -4.605000000    -4.392000000     0.209000000
O     1.683000000    -5.257000000     2.354000000
H     1.470000000    -4.829000000     1.524000000
H     2.305000000    -5.945000000     2.115000000
O    -4.361000000     0.232000000    -2.197000000
H    -3.431000000     0.142000000    -2.405000000
H    -4.423000000    -0.008000000    -1.272000000
O     3.200000000    -4.834000000    -2.229000000
H     3.768000000    -5.474000000    -1.800000000
H     3.193000000    -4.084000000    -1.635000000
O    -0.515000000    -6.040000000     4.120000000
H     0.127000000    -5.698000000     3.499000000
H    -0.061000000    -6.031000000     4.963000000
O    -0.909000000     0.930000000     5.853000000
H    -0.009000000     1.147000000     5.608000000
H    -1.292000000     0.563000000     5.056000000
O     6.215000000    -2.635000000    -2.673000000
H     6.804000000    -3.382000000    -2.570000000
H     6.786000000    -1.869000000    -2.611000000
O     4.820000000    -3.693000000     1.092000000
H     4.028000000    -3.469000000     0.604000000
H     5.500000000    -3.135000000     0.716000000
O     1.794000000     1.320000000     5.279000000
H     1.996000000     1.980000000     4.616000000
H     2.426000000     1.482000000     5.979000000
O     7.353000000    -2.652000000     0.103000000
H     6.717000000    -2.569000000    -0.607000000
H     8.138000000    -2.215000000    -0.226000000
O    -2.222000000    -5.224000000    -3.032000000
H    -1.285000000    -5.140000000    -3.204000000
H    -2.302000000    -6.039000000    -2.536000000
O    -2.165000000     2.186000000    -5.037000000
H    -1.250000000     2.150000000    -4.757000000
H    -2.319000000     3.111000000    -5.231000000
O     3.859000000    -1.110000000    -2.623000000
H     3.463000000    -1.618000000    -1.914000000
H     4.566000000    -1.666000000    -2.950000000
O    -0.289000000    -2.848000000     3.823000000
H     0.358000000    -3.206000000     3.216000000
H    -1.110000000    -3.273000000     3.576000000
O     4.153000000    -6.317000000     1.333000000
H     4.911000000    -6.736000000     1.741000000
H     4.365000000    -5.383000000     1.337000000
O     0.462000000    -5.051000000    -2.491000000
H     0.394000000    -4.758000000    -1.582000000
H     1.402000000    -5.152000000    -2.641000000
O    -4.943000000    -0.655000000     0.292000000
H    -4.506000000    -1.113000000     1.009000000
H    -5.811000000    -0.443000000     0.636000000
