161
-3038.34136
C     0.650000000     1.077000000    -0.786000000
H     1.078000000     1.938000000    -1.294000000
C     0.819000000     0.924000000     0.599000000
H     1.531000000     1.558000000     1.121000000
C     0.096000000    -0.091000000     1.206000000
C     0.236000000    -0.361000000     2.715000000
H    -0.761000000    -0.333000000     3.161000000
H     0.722000000    -1.308000000     2.959000000
H     0.829000000     0.438000000     3.164000000
C    -0.714000000    -0.956000000     0.494000000
H    -1.268000000    -1.824000000     0.843000000
C    -0.818000000    -0.768000000    -0.879000000
H    -1.305000000    -1.551000000    -1.455000000
C    -0.136000000     0.263000000    -1.565000000
C    -0.296000000     0.319000000    -3.026000000
O    -1.100000000    -0.408000000    -3.632000000
O     0.433000000     1.086000000    -3.620000000
O    -0.116000000    -5.236000000    -1.767000000
H     0.302000000    -5.852000000    -1.166000000
H    -1.005000000    -5.574000000    -1.876000000
O     0.527000000    -4.935000000     1.923000000
H     1.136000000    -4.300000000     1.548000000
H    -0.127000000    -4.402000000     2.376000000
O     3.677000000    -0.223000000     1.518000000
H     3.483000000     0.323000000     2.280000000
H     4.310000000    -0.865000000     1.839000000
O     3.264000000    -4.538000000     4.975000000
H     3.889000000    -5.237000000     5.166000000
H     2.458000000    -4.810000000     5.414000000
O    -1.278000000    -2.925000000    -4.490000000
H    -1.813000000    -2.962000000    -5.283000000
H    -1.390000000    -2.032000000    -4.166000000
O     4.450000000     2.145000000     0.072000000
H     3.970000000     1.503000000     0.597000000
H     5.268000000     2.281000000     0.551000000
O     0.971000000     4.750000000     4.425000000
H     1.731000000     5.012000000     3.906000000
H     1.267000000     3.981000000     4.912000000
O     2.621000000     3.122000000     6.232000000
H     2.866000000     4.021000000     6.013000000
H     3.383000000     2.599000000     5.983000000
O    -2.513000000     0.459000000    -5.816000000
H    -2.775000000    -0.305000000    -6.330000000
H    -2.138000000     0.092000000    -5.016000000
O    -3.239000000    -2.668000000    -6.431000000
H    -3.495000000    -3.587000000    -6.505000000
H    -3.529000000    -2.272000000    -7.252000000
O     0.896000000    -1.359000000    -8.439000000
H     0.901000000    -1.024000000    -7.542000000
H     1.396000000    -0.713000000    -8.938000000
O     2.430000000    -2.192000000    -5.201000000
H     3.078000000    -2.408000000    -5.872000000
H     2.166000000    -3.040000000    -4.843000000
O    -1.406000000     3.949000000    -6.946000000
H    -0.634000000     4.171000000    -6.425000000
H    -2.117000000     3.893000000    -6.307000000
O    -3.613000000    -1.502000000    -3.185000000
H    -2.779000000    -1.034000000    -3.235000000
H    -3.367000000    -2.420000000    -3.072000000
O    -0.233000000     2.882000000     6.787000000
H     0.672000000     2.582000000     6.699000000
H    -0.270000000     3.280000000     7.657000000
O     3.004000000     1.222000000    -3.262000000
H     3.239000000     2.150000000    -3.264000000
H     2.058000000     1.214000000    -3.408000000
O    -3.729000000    -4.961000000     0.394000000
H    -3.521000000    -5.426000000     1.204000000
H    -3.778000000    -4.040000000     0.652000000
O     4.005000000     0.062000000    -5.679000000
H     3.355000000    -0.638000000    -5.745000000
H     3.797000000     0.505000000    -4.857000000
O    -6.062000000    -1.061000000    -4.542000000
H    -5.330000000    -1.091000000    -3.927000000
H    -5.956000000    -0.226000000    -4.999000000
O     0.478000000     3.436000000    -4.762000000
H     0.125000000     3.921000000    -4.016000000
H     0.461000000     2.521000000    -4.482000000
O    -5.191000000    -0.866000000     3.312000000
H    -5.882000000    -0.466000000     3.839000000
H    -4.387000000    -0.436000000     3.604000000
O    -4.082000000    -2.439000000     1.279000000
H    -4.575000000    -2.514000000     2.096000000
H    -4.377000000    -1.613000000     0.896000000
O     5.186000000     3.998000000    -2.050000000
H     4.869000000     3.331000000    -1.440000000
H     6.139000000     3.911000000    -2.026000000
O    -0.454000000     4.879000000    -2.405000000
H    -0.850000000     5.736000000    -2.560000000
H     0.228000000     5.045000000    -1.754000000
O     3.393000000    -0.827000000    -1.222000000
H     3.975000000    -0.354000000    -0.627000000
H     3.132000000    -0.174000000    -1.871000000
O     2.457000000     2.787000000    -7.746000000
H     2.207000000     3.703000000    -7.867000000
H     1.649000000     2.352000000    -7.474000000
O    -4.190000000    -4.481000000    -2.485000000
H    -3.798000000    -4.947000000    -1.746000000
H    -5.034000000    -4.174000000    -2.155000000
O    -0.951000000    -2.001000000     6.255000000
H    -1.277000000    -2.696000000     6.826000000
H    -0.123000000    -1.732000000     6.653000000
O    -2.619000000     3.533000000    -1.950000000
H    -2.635000000     2.838000000    -1.292000000
H    -1.709000000     3.830000000    -1.962000000
O    -0.843000000     3.869000000     0.543000000
H     0.023000000     3.465000000     0.478000000
H    -1.454000000     3.152000000     0.372000000
O     2.532000000    -3.104000000     0.882000000
H     2.631000000    -3.273000000    -0.055000000
H     2.131000000    -2.237000000     0.929000000
O    -1.775000000     4.256000000     3.542000000
H    -0.942000000     4.171000000     3.079000000
H    -2.437000000     4.229000000     2.851000000
O     2.525000000    -3.171000000    -1.863000000
H     1.967000000    -2.953000000    -2.609000000
H     2.996000000    -2.360000000    -1.671000000
O     0.002000000     1.768000000    -7.715000000
H    -0.781000000     2.316000000    -7.662000000
H    -0.082000000     1.161000000    -6.980000000
O     3.987000000     2.161000000     3.674000000
H     3.992000000     3.107000000     3.821000000
H     4.846000000     1.867000000     3.975000000
O    -3.084000000     3.390000000    -4.813000000
H    -2.755000000     3.605000000    -3.941000000
H    -2.846000000     2.471000000    -4.939000000
O    -2.996000000    -0.366000000     4.937000000
H    -2.820000000     0.524000000     5.242000000
H    -2.240000000    -0.875000000     5.230000000
O    -2.295000000     2.331000000     5.290000000
H    -1.380000000     2.273000000     5.564000000
H    -2.337000000     3.129000000     4.764000000
O     0.948000000    -4.223000000    -3.989000000
H     0.575000000    -4.581000000    -3.184000000
H     0.195000000    -3.881000000    -4.471000000
O     0.696000000    -0.296000000    -5.962000000
H     1.444000000    -0.819000000    -5.674000000
H     0.381000000     0.130000000    -5.165000000
O    -2.502000000     1.531000000     0.211000000
H    -3.366000000     1.143000000     0.352000000
H    -1.919000000     0.780000000     0.100000000
O     3.075000000    -2.325000000     3.466000000
H     3.168000000    -3.157000000     3.931000000
H     2.827000000    -2.575000000     2.576000000
O     3.444000000     5.107000000    -4.099000000
H     3.719000000     4.264000000    -4.458000000
H     3.929000000     5.189000000    -3.279000000
O     2.526000000     4.208000000     0.116000000
H     3.335000000     3.763000000    -0.138000000
H     2.772000000     4.738000000     0.874000000
O     2.351000000    -2.221000000     7.624000000
H     2.397000000    -3.151000000     7.401000000
H     2.742000000    -1.775000000     6.872000000
O    -0.953000000    -3.784000000     4.033000000
H    -0.459000000    -4.018000000     4.819000000
H    -1.055000000    -2.834000000     4.088000000
O     3.528000000    -0.638000000     5.649000000
H     3.143000000    -1.092000000     4.899000000
H     4.303000000    -0.204000000     5.294000000
O     1.224000000     6.698000000    -1.033000000
H     2.135000000     6.404000000    -1.019000000
H     1.199000000     7.368000000    -1.717000000
