161
-3049.04633
C     1.226000000    -0.524000000    -0.758000000
H     2.120000000    -0.919000000    -1.233000000
C     0.906000000    -0.611000000     0.656000000
H     1.628000000    -0.963000000     1.389000000
C    -0.196000000    -0.023000000     1.181000000
C    -0.347000000     0.052000000     2.706000000
H    -0.800000000    -0.839000000     3.145000000
H     0.606000000     0.136000000     3.234000000
H    -0.939000000     0.920000000     3.004000000
C    -1.153000000     0.534000000     0.327000000
H    -2.082000000     0.814000000     0.817000000
C    -0.931000000     0.553000000    -1.020000000
H    -1.728000000     0.953000000    -1.641000000
C     0.205000000     0.018000000    -1.575000000
C     0.406000000     0.000000000    -3.021000000
O    -0.463000000    -0.294000000    -3.809000000
O     1.545000000     0.198000000    -3.399000000
O    -1.185000000    -5.363000000    -4.735000000
H    -1.751000000    -5.512000000    -5.493000000
H    -1.014000000    -4.421000000    -4.747000000
O     4.486000000    -2.035000000     0.304000000
H     3.936000000    -2.487000000     0.945000000
H     5.379000000    -2.161000000     0.625000000
O    -4.969000000     0.835000000    -0.225000000
H    -4.458000000     1.074000000    -0.998000000
H    -4.759000000    -0.086000000    -0.074000000
O     2.928000000    -3.889000000     4.639000000
H     3.835000000    -4.145000000     4.806000000
H     2.434000000    -4.277000000     5.361000000
O    -5.426000000     2.410000000     1.803000000
H    -5.438000000     1.689000000     2.433000000
H    -5.446000000     1.981000000     0.948000000
O    -0.746000000    -2.773000000    -4.929000000
H    -1.290000000    -2.427000000    -5.636000000
H    -0.483000000    -2.001000000    -4.428000000
O    -4.414000000    -3.727000000     6.385000000
H    -3.681000000    -3.733000000     7.001000000
H    -4.010000000    -3.553000000     5.535000000
O     5.028000000     0.488000000    -0.818000000
H     5.000000000    -0.387000000    -0.429000000
H     5.827000000     0.880000000    -0.465000000
O     2.263000000     1.129000000     5.426000000
H     1.626000000     1.671000000     5.891000000
H     2.158000000     1.372000000     4.506000000
O    -3.152000000     0.246000000    -5.121000000
H    -2.957000000    -0.140000000    -5.975000000
H    -2.316000000     0.232000000    -4.655000000
O    -1.935000000    -1.814000000    -7.065000000
H    -1.405000000    -2.451000000    -7.545000000
H    -2.633000000    -1.575000000    -7.675000000
O    -0.645000000     2.916000000    -5.080000000
H     0.093000000     2.355000000    -4.843000000
H    -0.272000000     3.796000000    -5.128000000
O     3.053000000     1.821000000    -7.461000000
H     2.358000000     1.230000000    -7.170000000
H     3.641000000     1.265000000    -7.972000000
O    -2.374000000    -1.783000000    -2.592000000
H    -1.759000000    -1.240000000    -3.085000000
H    -2.375000000    -2.622000000    -3.054000000
O    -5.356000000     4.973000000     0.823000000
H    -5.406000000     4.074000000     1.148000000
H    -4.428000000     5.108000000     0.632000000
O     0.621000000     3.218000000     6.180000000
H     0.944000000     3.864000000     5.553000000
H     0.711000000     3.645000000     7.032000000
O     3.735000000    -0.794000000    -3.982000000
H     4.253000000    -0.280000000    -3.362000000
H     2.868000000    -0.390000000    -3.962000000
O     3.957000000    -1.893000000    -6.524000000
H     3.205000000    -1.491000000    -6.959000000
H     3.909000000    -1.577000000    -5.622000000
O    -5.100000000    -2.031000000    -3.770000000
H    -5.319000000    -2.703000000    -3.125000000
H    -4.419000000    -1.507000000    -3.348000000
O     1.867000000     2.933000000    -3.729000000
H     1.392000000     3.171000000    -2.933000000
H     1.836000000     1.977000000    -3.750000000
O    -5.222000000    -0.028000000     3.482000000
H    -5.601000000    -0.781000000     3.029000000
H    -4.391000000    -0.350000000     3.829000000
O    -1.895000000    -3.077000000     1.890000000
H    -2.188000000    -3.071000000     0.978000000
H    -1.778000000    -2.153000000     2.109000000
O     4.819000000     2.832000000    -3.039000000
H     4.677000000     2.400000000    -2.196000000
H     4.023000000     3.343000000    -3.184000000
O     4.500000000    -5.515000000    -1.192000000
H     4.124000000    -4.699000000    -1.521000000
H     3.773000000    -5.950000000    -0.745000000
O    -1.049000000     4.587000000    -1.624000000
H    -0.397000000     5.160000000    -2.028000000
H    -0.578000000     4.152000000    -0.913000000
O     3.629000000    -3.140000000    -2.009000000
H     3.812000000    -2.698000000    -1.180000000
H     4.218000000    -2.722000000    -2.638000000
O    -3.902000000    -1.976000000    -0.173000000
H    -3.263000000    -1.893000000    -0.881000000
H    -4.658000000    -2.398000000    -0.581000000
O    -1.564000000    -2.787000000     6.909000000
H    -1.539000000    -3.743000000     6.866000000
H    -0.961000000    -2.563000000     7.618000000
O    -3.079000000     5.873000000    -0.341000000
H    -2.298000000     5.459000000    -0.708000000
H    -3.649000000     6.019000000    -1.096000000
O     0.968000000    -4.525000000     0.544000000
H     0.760000000    -3.832000000    -0.082000000
H     0.527000000    -5.301000000     0.198000000
O     5.120000000     0.975000000     6.278000000
H     4.167000000     1.022000000     6.200000000
H     5.400000000     0.486000000     5.504000000
O    -2.144000000     3.597000000     3.444000000
H    -2.515000000     3.331000000     2.603000000
H    -2.647000000     4.372000000     3.693000000
O     2.163000000    -5.011000000    -3.208000000
H     1.358000000    -4.669000000    -2.819000000
H     2.826000000    -4.350000000    -3.009000000
O    -0.755000000     1.578000000    -7.492000000
H    -1.029000000     2.318000000    -6.949000000
H    -0.526000000     0.893000000    -6.864000000
O    -2.938000000     3.701000000    -3.421000000
H    -2.511000000     4.154000000    -2.694000000
H    -2.216000000     3.387000000    -3.965000000
O    -2.598000000    -0.875000000     5.149000000
H    -2.423000000     0.055000000     5.292000000
H    -2.006000000    -1.326000000     5.751000000
O    -1.728000000     1.758000000     5.459000000
H    -0.915000000     2.128000000     5.805000000
H    -1.982000000     2.354000000     4.755000000
O    -0.342000000    -4.838000000    -2.193000000
H    -0.421000000    -5.243000000    -3.056000000
H    -1.238000000    -4.603000000    -1.954000000
O     1.179000000    -0.283000000    -6.170000000
H     0.929000000    -1.157000000    -6.469000000
H     1.031000000    -0.302000000    -5.225000000
O    -4.265000000     1.162000000    -2.792000000
H    -4.136000000     2.094000000    -2.965000000
H    -3.936000000     0.725000000    -3.578000000
O    -3.406000000    -4.225000000     3.790000000
H    -2.803000000    -3.714000000     3.251000000
H    -4.253000000    -3.794000000     3.678000000
O    -0.015000000     3.791000000     0.726000000
H     0.591000000     3.071000000     0.553000000
H    -0.381000000     3.594000000     1.588000000
O     2.774000000    -2.955000000     2.012000000
H     2.853000000    -3.382000000     2.865000000
H     2.125000000    -3.479000000     1.541000000
O     3.133000000     4.198000000    -5.863000000
H     3.187000000     3.388000000    -6.371000000
H     2.700000000     3.941000000    -5.049000000
O     2.092000000     2.447000000    -0.520000000
H     2.825000000     3.062000000    -0.515000000
H     2.498000000     1.591000000    -0.658000000
O     2.468000000    -1.560000000     6.490000000
H     2.340000000    -2.341000000     5.952000000
H     2.287000000    -0.829000000     5.898000000
O     0.332000000    -6.405000000     3.864000000
H     1.146000000    -6.865000000     3.655000000
H     0.375000000    -5.598000000     3.352000000
O     3.470000000    -0.360000000     3.073000000
H     2.924000000    -1.050000000     2.696000000
H     3.954000000    -0.003000000     2.329000000
