161
-3061.55674
C     0.686000000    -1.185000000    -0.418000000
H     1.187000000    -2.106000000    -0.705000000
C     0.764000000    -0.632000000     0.837000000
H     1.363000000    -1.141000000     1.588000000
C    -0.042000000     0.423000000     1.160000000
C     0.163000000     1.149000000     2.479000000
H    -0.605000000     1.904000000     2.659000000
H     0.077000000     0.392000000     3.261000000
H     1.155000000     1.589000000     2.606000000
C    -0.854000000     1.000000000     0.162000000
H    -1.322000000     1.944000000     0.428000000
C    -0.801000000     0.533000000    -1.163000000
H    -1.447000000     0.973000000    -1.919000000
C    -0.064000000    -0.609000000    -1.441000000
C    -0.084000000    -1.220000000    -2.827000000
O    -0.876000000    -0.862000000    -3.672000000
O     0.707000000    -2.152000000    -3.028000000
O    -3.874000000    -3.132000000    -5.926000000
H    -3.754000000    -3.577000000    -6.765000000
H    -3.067000000    -3.308000000    -5.444000000
O    -0.374000000    -1.492000000    -7.108000000
H    -0.808000000    -1.713000000    -6.284000000
H    -0.056000000    -2.330000000    -7.444000000
O    -1.788000000    -2.562000000     1.809000000
H    -0.841000000    -2.583000000     1.944000000
H    -1.901000000    -2.754000000     0.878000000
O     1.457000000    -6.238000000     2.767000000
H     0.541000000    -6.247000000     3.043000000
H     1.434000000    -5.907000000     1.869000000
O    -3.928000000     1.712000000    -6.734000000
H    -4.632000000     1.065000000    -6.754000000
H    -3.419000000     1.489000000    -5.954000000
O     0.083000000     3.145000000     6.697000000
H    -0.020000000     3.770000000     5.980000000
H     1.030000000     3.054000000     6.801000000
O     0.271000000    -5.613000000    -5.900000000
H     0.859000000    -4.915000000    -5.611000000
H    -0.581000000    -5.187000000    -5.989000000
O    -2.273000000     3.996000000     0.872000000
H    -2.833000000     4.292000000     0.154000000
H    -1.436000000     4.433000000     0.718000000
O     2.215000000     1.059000000    -2.823000000
H     1.901000000     1.553000000    -2.065000000
H     1.996000000     1.610000000    -3.575000000
O    -4.589000000     0.784000000    -0.229000000
H    -5.428000000     0.324000000    -0.253000000
H    -4.380000000     0.948000000    -1.149000000
O     1.113000000     2.605000000    -0.677000000
H     0.647000000     1.850000000    -0.319000000
H     0.562000000     3.355000000    -0.453000000
O    -3.366000000     5.346000000    -1.417000000
H    -4.267000000     5.025000000    -1.404000000
H    -2.923000000     4.791000000    -2.059000000
O    -3.126000000    -0.923000000     3.543000000
H    -3.133000000    -0.090000000     3.071000000
H    -2.617000000    -1.510000000     2.984000000
O     4.581000000    -1.029000000    -0.446000000
H     4.397000000    -0.208000000     0.010000000
H     5.503000000    -1.205000000    -0.259000000
O    -5.461000000     3.564000000    -0.496000000
H    -6.213000000     3.400000000    -1.065000000
H    -5.190000000     2.695000000    -0.201000000
O     2.630000000    -3.642000000    -7.755000000
H     2.132000000    -3.552000000    -6.943000000
H     3.493000000    -3.283000000    -7.549000000
O    -2.296000000    -5.137000000    -3.339000000
H    -3.182000000    -5.297000000    -3.013000000
H    -2.136000000    -5.850000000    -3.957000000
O     3.584000000    -2.080000000    -2.821000000
H     2.685000000    -1.817000000    -2.627000000
H     4.089000000    -1.783000000    -2.064000000
O    -2.387000000     3.843000000    -3.376000000
H    -1.919000000     4.569000000    -3.788000000
H    -2.046000000     3.061000000    -3.810000000
O     1.763000000     3.545000000    -4.276000000
H     1.134000000     4.128000000    -3.850000000
H     2.415000000     4.133000000    -4.657000000
O     0.115000000     1.220000000    -6.415000000
H    -0.023000000     0.308000000    -6.669000000
H     1.032000000     1.256000000    -6.142000000
O     2.632000000     2.965000000     6.763000000
H     2.708000000     2.596000000     5.883000000
H     2.561000000     2.202000000     7.337000000
O    -2.192000000     1.636000000     5.958000000
H    -2.052000000     0.714000000     6.173000000
H    -1.326000000     2.035000000     6.037000000
O     3.686000000    -2.871000000     1.718000000
H     4.150000000    -2.686000000     2.535000000
H     3.842000000    -2.099000000     1.175000000
O     2.046000000    -0.502000000    -5.211000000
H     1.626000000    -0.291000000    -4.377000000
H     1.881000000    -1.437000000    -5.332000000
O    -2.236000000     5.500000000     3.897000000
H    -2.833000000     6.190000000     4.187000000
H    -2.645000000     5.146000000     3.107000000
O    -5.100000000    -0.504000000    -4.462000000
H    -6.000000000    -0.252000000    -4.256000000
H    -5.153000000    -0.886000000    -5.338000000
O    -3.212000000    -1.826000000    -2.955000000
H    -2.427000000    -1.439000000    -3.341000000
H    -3.937000000    -1.440000000    -3.447000000
O     0.765000000    -4.986000000    -2.552000000
H    -0.097000000    -4.628000000    -2.763000000
H     1.276000000    -4.229000000    -2.266000000
O     5.592000000    -4.102000000    -3.887000000
H     5.049000000    -4.873000000    -4.050000000
H     5.014000000    -3.494000000    -3.426000000
O     1.935000000    -3.292000000    -5.050000000
H     1.491000000    -2.963000000    -4.268000000
H     2.813000000    -3.522000000    -4.748000000
O     3.390000000    -5.605000000    -4.344000000
H     2.495000000    -5.325000000    -4.537000000
H     3.321000000    -6.072000000    -3.512000000
O    -1.250000000    -3.271000000    -5.051000000
H    -1.521000000    -3.865000000    -4.351000000
H    -1.037000000    -2.453000000    -4.603000000
O     0.978000000    -2.681000000     3.976000000
H     1.044000000    -3.155000000     4.805000000
H     1.813000000    -2.848000000     3.538000000
O     3.212000000     2.210000000     3.994000000
H     3.923000000     2.743000000     3.639000000
H     2.416000000     2.607000000     3.641000000
O     5.760000000    -0.824000000    -4.492000000
H     5.634000000     0.117000000    -4.609000000
H     4.933000000    -1.134000000    -4.125000000
O    -1.449000000    -0.988000000     5.524000000
H    -2.124000000    -1.019000000     4.846000000
H    -0.700000000    -1.442000000     5.139000000
O     4.454000000     0.955000000     1.883000000
H     3.867000000     1.090000000     2.627000000
H     4.242000000     1.666000000     1.279000000
O     0.250000000     4.893000000     4.665000000
H     0.896000000     5.492000000     4.291000000
H    -0.576000000     5.142000000     4.250000000
O     4.715000000    -4.402000000    -0.416000000
H     4.264000000    -3.683000000    -0.858000000
H     4.922000000    -4.057000000     0.453000000
O     1.902000000    -4.656000000     0.501000000
H     2.622000000    -4.226000000     0.963000000
H     2.333000000    -5.222000000    -0.139000000
O    -4.878000000     3.541000000     3.787000000
H    -4.245000000     2.828000000     3.702000000
H    -5.705000000     3.164000000     3.486000000
O    -0.151000000    -0.883000000     8.439000000
H    -0.920000000    -0.671000000     8.969000000
H    -0.508000000    -1.106000000     7.579000000
O    -0.036000000     4.992000000     0.023000000
H     0.439000000     5.686000000     0.480000000
H    -0.044000000     5.270000000    -0.893000000
O    -1.921000000     1.499000000    -4.703000000
H    -1.137000000     1.608000000    -5.241000000
H    -1.746000000     0.717000000    -4.180000000
O    -3.438000000     1.687000000     2.522000000
H    -3.994000000     1.583000000     1.750000000
H    -2.763000000     2.309000000     2.250000000
O     3.819000000     2.634000000    -0.181000000
H     4.201000000     3.511000000    -0.179000000
H     2.911000000     2.768000000    -0.454000000
O    -2.281000000    -3.312000000    -0.775000000
H    -2.755000000    -2.838000000    -1.458000000
H    -1.781000000    -3.977000000    -1.248000000
