161
-3042.10178
C     0.261000000    -1.399000000    -0.118000000
H     0.462000000    -2.451000000     0.068000000
C     0.858000000    -0.545000000     0.811000000
H     1.569000000    -0.940000000     1.532000000
C     0.534000000     0.788000000     0.709000000
C     1.195000000     1.745000000     1.614000000
H     0.972000000     1.512000000     2.658000000
H     2.283000000     1.762000000     1.519000000
H     0.926000000     2.776000000     1.377000000
C    -0.501000000     1.233000000    -0.073000000
H    -0.722000000     2.293000000     0.018000000
C    -1.065000000     0.393000000    -1.036000000
H    -1.834000000     0.741000000    -1.721000000
C    -0.717000000    -0.978000000    -1.024000000
C    -1.239000000    -2.041000000    -1.873000000
O    -2.321000000    -1.829000000    -2.356000000
O    -0.653000000    -3.062000000    -2.111000000
O     3.398000000     4.424000000     1.542000000
H     3.254000000     4.800000000     0.674000000
H     2.557000000     4.523000000     1.989000000
O    -4.907000000     5.171000000     1.075000000
H    -4.220000000     5.339000000     0.430000000
H    -5.179000000     4.269000000     0.905000000
O    -3.187000000     0.961000000     4.203000000
H    -2.807000000     0.280000000     3.647000000
H    -2.903000000     1.783000000     3.802000000
O    -4.024000000    -1.606000000    -0.188000000
H    -4.341000000    -2.497000000    -0.045000000
H    -3.997000000    -1.511000000    -1.140000000
O     3.160000000    -2.678000000     3.471000000
H     2.204000000    -2.693000000     3.428000000
H     3.391000000    -3.469000000     3.958000000
O    -0.490000000    -7.474000000    -4.320000000
H    -0.885000000    -7.311000000    -3.464000000
H     0.438000000    -7.612000000    -4.133000000
O    -1.194000000     0.298000000    -6.168000000
H    -0.573000000     0.323000000    -5.439000000
H    -1.706000000    -0.497000000    -6.018000000
O     3.338000000     5.852000000    -0.658000000
H     3.763000000     6.665000000    -0.932000000
H     3.617000000     5.206000000    -1.307000000
O     2.554000000    -5.757000000    -4.154000000
H     3.366000000    -5.264000000    -4.270000000
H     1.954000000    -5.136000000    -3.740000000
O     6.945000000     2.185000000     3.189000000
H     7.321000000     1.544000000     2.586000000
H     5.998000000     2.082000000     3.087000000
O    -1.025000000     4.057000000    -4.491000000
H    -1.219000000     4.897000000    -4.077000000
H    -1.852000000     3.791000000    -4.893000000
O    -2.573000000    -0.802000000     1.990000000
H    -1.649000000    -0.749000000     1.746000000
H    -3.021000000    -1.046000000     1.180000000
O    -7.136000000    -2.348000000    -1.680000000
H    -7.478000000    -3.242000000    -1.688000000
H    -6.377000000    -2.376000000    -2.263000000
O     0.561000000     0.095000000    -4.014000000
H     1.407000000     0.542000000    -4.036000000
H     0.607000000    -0.467000000    -3.240000000
O     0.241000000    -3.049000000     3.574000000
H    -0.378000000    -2.402000000     3.236000000
H     0.215000000    -3.762000000     2.936000000
O    -0.055000000    -3.889000000    -4.588000000
H    -0.731000000    -4.539000000    -4.780000000
H    -0.343000000    -3.478000000    -3.773000000
O    -2.098000000    -4.746000000    -6.646000000
H    -2.260000000    -4.747000000    -7.589000000
H    -2.408000000    -3.890000000    -6.351000000
O     1.109000000    -4.784000000    -1.371000000
H     1.161000000    -4.507000000    -0.456000000
H     0.608000000    -4.093000000    -1.803000000
O    -3.308000000     1.945000000    -4.844000000
H    -3.723000000     1.285000000    -4.289000000
H    -2.864000000     1.440000000    -5.525000000
O     6.123000000     4.995000000     1.159000000
H     5.246000000     4.626000000     1.263000000
H     6.232000000     5.090000000     0.213000000
O    -2.424000000     3.307000000     2.685000000
H    -1.979000000     3.894000000     2.074000000
H    -3.006000000     3.879000000     3.185000000
O     4.039000000    -2.675000000    -0.589000000
H     3.506000000    -2.764000000     0.201000000
H     3.402000000    -2.620000000    -1.302000000
O     0.621000000     3.276000000    -2.247000000
H     0.327000000     2.619000000    -1.615000000
H    -0.046000000     3.264000000    -2.933000000
O    -4.889000000    -1.234000000    -5.800000000
H    -5.330000000    -0.387000000    -5.737000000
H    -5.359000000    -1.699000000    -6.492000000
O    -3.084000000     5.037000000    -0.931000000
H    -2.809000000     5.645000000    -1.617000000
H    -2.281000000     4.845000000    -0.446000000
O    -2.461000000    -3.878000000     2.677000000
H    -2.389000000    -2.925000000     2.729000000
H    -2.619000000    -4.055000000     1.750000000
O    -0.235000000    -7.035000000    -1.322000000
H     0.296000000    -6.249000000    -1.453000000
H     0.004000000    -7.343000000    -0.448000000
O     3.512000000     0.434000000     6.059000000
H     3.845000000     0.022000000     5.261000000
H     3.073000000     1.228000000     5.753000000
O     1.461000000     4.942000000     3.532000000
H     2.302000000     5.297000000     3.819000000
H     0.848000000     5.671000000     3.628000000
O    -1.082000000     0.007000000     5.471000000
H    -2.038000000    -0.030000000     5.485000000
H    -0.880000000     0.922000000     5.277000000
O     4.330000000     2.055000000     3.002000000
H     4.041000000     2.629000000     2.292000000
H     3.637000000     2.121000000     3.660000000
O    -0.562000000     2.609000000     4.981000000
H    -0.682000000     3.379000000     4.424000000
H     0.103000000     2.874000000     5.616000000
O    -0.953000000     5.108000000     1.054000000
H    -0.337000000     5.374000000     0.371000000
H    -0.943000000     5.831000000     1.681000000
O     6.497000000    -3.299000000     2.137000000
H     5.799000000    -2.660000000     2.282000000
H     7.306000000    -2.798000000     2.244000000
O    -3.359000000    -6.022000000    -4.731000000
H    -2.951000000    -5.812000000    -3.891000000
H    -2.726000000    -5.728000000    -5.386000000
O    -4.530000000     2.516000000     0.688000000
H    -4.665000000     1.954000000     1.451000000
H    -3.591000000     2.459000000     0.512000000
O     5.162000000    -0.986000000     2.797000000
H     4.847000000    -0.087000000     2.892000000
H     4.427000000    -1.529000000     3.082000000
O     2.389000000     2.508000000     4.677000000
H     2.587000000     3.345000000     5.097000000
H     1.660000000     2.703000000     4.087000000
O     0.603000000     5.910000000    -1.259000000
H     1.534000000     6.050000000    -1.086000000
H     0.557000000     5.027000000    -1.625000000
O    -3.252000000    -4.738000000     0.170000000
H    -3.037000000    -4.999000000    -0.725000000
H    -3.884000000    -5.393000000     0.466000000
O     2.289000000    -2.134000000    -4.209000000
H     2.404000000    -1.323000000    -4.704000000
H     1.502000000    -2.532000000    -4.581000000
O    -2.435000000    -2.017000000    -5.350000000
H    -3.381000000    -1.914000000    -5.446000000
H    -2.302000000    -2.151000000    -4.411000000
O     0.315000000    -4.846000000     1.477000000
H     1.148000000    -5.255000000     1.242000000
H    -0.112000000    -5.484000000     2.048000000
O    -3.997000000    -0.054000000    -3.230000000
H    -3.467000000    -0.648000000    -2.697000000
H    -4.653000000    -0.619000000    -3.638000000
O     1.025000000     3.843000000     6.943000000
H     1.025000000     3.049000000     7.477000000
H     1.842000000     4.286000000     7.172000000
O    -2.026000000    -5.242000000    -2.477000000
H    -1.521000000    -5.885000000    -1.979000000
H    -1.578000000    -4.411000000    -2.319000000
O    -4.574000000    -3.023000000    -2.885000000
H    -4.540000000    -3.977000000    -2.960000000
H    -3.664000000    -2.762000000    -2.744000000
O     3.112000000    -5.194000000     1.572000000
H     3.470000000    -5.452000000     2.422000000
H     3.692000000    -5.608000000     0.933000000
