161
-3083.34243
C     0.599000000    -1.306000000     0.281000000
H     1.147000000    -2.210000000     0.532000000
C     1.238000000    -0.089000000     0.341000000
H     2.190000000    -0.012000000     0.860000000
C     0.528000000     1.100000000     0.189000000
C     1.282000000     2.360000000     0.356000000
H     0.792000000     2.995000000     1.097000000
H     2.360000000     2.270000000     0.504000000
H     1.143000000     2.807000000    -0.631000000
C    -0.780000000     1.044000000    -0.181000000
H    -1.326000000     1.983000000    -0.138000000
C    -1.391000000    -0.140000000    -0.418000000
H    -2.441000000    -0.217000000    -0.687000000
C    -0.705000000    -1.378000000    -0.242000000
C    -1.320000000    -2.699000000    -0.591000000
O    -2.498000000    -2.736000000    -1.036000000
O    -0.811000000    -3.768000000    -0.232000000
O     5.171000000     4.580000000    -1.808000000
H     4.715000000     5.238000000    -1.283000000
H     4.632000000     4.483000000    -2.593000000
O     3.021000000     5.878000000     0.163000000
H     2.118000000     5.561000000     0.172000000
H     3.373000000     5.624000000     1.016000000
O    -1.636000000    -4.428000000     3.940000000
H    -1.086000000    -4.644000000     3.186000000
H    -2.221000000    -5.180000000     4.033000000
O    -4.144000000    -2.297000000     1.071000000
H    -4.533000000    -3.166000000     1.166000000
H    -3.600000000    -2.362000000     0.285000000
O     0.771000000    -2.630000000     4.291000000
H    -0.137000000    -2.911000000     4.184000000
H     1.269000000    -3.198000000     3.703000000
O    -0.568000000     0.496000000    -3.301000000
H    -0.497000000     0.497000000    -2.347000000
H    -0.645000000    -0.428000000    -3.535000000
O     3.023000000    -1.942000000    -2.868000000
H     3.336000000    -1.911000000    -1.964000000
H     2.967000000    -1.025000000    -3.135000000
O    -1.242000000     7.010000000    -2.548000000
H    -1.443000000     7.367000000    -1.682000000
H    -1.160000000     6.067000000    -2.405000000
O    -2.616000000     2.630000000     2.248000000
H    -3.471000000     2.724000000     2.669000000
H    -2.819000000     2.346000000     1.357000000
O     4.024000000    -1.519000000    -0.509000000
H     4.956000000    -1.301000000    -0.546000000
H     3.579000000    -0.672000000    -0.526000000
O     3.627000000     2.494000000     3.147000000
H     2.873000000     2.334000000     3.715000000
H     3.485000000     3.376000000     2.804000000
O     5.059000000     1.222000000    -0.818000000
H     5.297000000     1.813000000    -0.103000000
H     5.797000000     0.616000000    -0.882000000
O     0.299000000     2.368000000    -5.178000000
H     0.497000000     1.671000000    -4.551000000
H    -0.167000000     3.027000000    -4.663000000
O    -2.316000000    -1.913000000     3.377000000
H    -1.870000000    -2.692000000     3.708000000
H    -2.727000000    -2.199000000     2.562000000
O    -5.408000000     0.124000000     1.115000000
H    -6.122000000    -0.180000000     0.554000000
H    -4.892000000    -0.663000000     1.292000000
O     3.744000000    -1.876000000     3.064000000
H     3.133000000    -1.145000000     3.153000000
H     4.598000000    -1.462000000     2.943000000
O     0.179000000    -4.703000000     2.067000000
H    -0.064000000    -4.171000000     1.310000000
H     1.133000000    -4.636000000     2.111000000
O     3.287000000    -6.888000000    -0.386000000
H     2.495000000    -7.282000000    -0.019000000
H     3.231000000    -5.965000000    -0.141000000
O    -2.974000000     1.339000000    -4.535000000
H    -2.913000000     2.274000000    -4.731000000
H    -2.082000000     1.084000000    -4.300000000
O    -0.314000000     6.382000000     4.835000000
H    -0.053000000     7.300000000     4.757000000
H    -0.774000000     6.193000000     4.017000000
O    -0.215000000     2.101000000     4.200000000
H    -0.621000000     2.125000000     3.334000000
H     0.281000000     2.918000000     4.255000000
O     5.983000000     2.681000000     1.630000000
H     5.269000000     2.397000000     2.201000000
H     5.883000000     3.632000000     1.577000000
O     1.262000000     7.755000000     1.566000000
H     1.938000000     7.153000000     1.255000000
H     0.880000000     8.119000000     0.768000000
O     3.086000000     2.340000000    -2.057000000
H     3.084000000     1.763000000    -2.820000000
H     3.840000000     2.053000000    -1.541000000
O    -5.654000000    -4.545000000     1.582000000
H    -6.426000000    -4.660000000     1.028000000
H    -5.964000000    -4.019000000     2.319000000
O     1.454000000     4.183000000     4.893000000
H     0.842000000     4.916000000     4.958000000
H     1.611000000     3.920000000     5.801000000
O    -1.320000000     4.378000000    -2.463000000
H    -1.784000000     4.259000000    -3.292000000
H    -0.396000000     4.272000000    -2.688000000
O    -3.912000000    -6.547000000     2.345000000
H    -4.568000000    -5.892000000     2.105000000
H    -3.247000000    -6.484000000     1.659000000
O    -1.609000000    -8.112000000    -2.093000000
H    -1.125000000    -7.411000000    -1.656000000
H    -0.939000000    -8.613000000    -2.557000000
O     2.992000000     5.116000000     2.821000000
H     3.445000000     5.845000000     3.245000000
H     2.276000000     4.898000000     3.418000000
O    -3.654000000    -6.908000000    -3.333000000
H    -3.073000000    -7.464000000    -2.814000000
H    -3.854000000    -6.169000000    -2.759000000
O    -7.270000000    -1.502000000    -0.463000000
H    -8.105000000    -1.942000000    -0.305000000
H    -6.847000000    -2.026000000    -1.144000000
O    -2.693000000     5.028000000     0.082000000
H    -3.419000000     4.446000000     0.306000000
H    -2.433000000     4.760000000    -0.799000000
O    -1.579000000     5.226000000     2.515000000
H    -1.621000000     5.198000000     1.559000000
H    -2.236000000     4.591000000     2.802000000
O     5.527000000    -5.094000000     1.513000000
H     5.548000000    -4.876000000     0.581000000
H     4.652000000    -4.831000000     1.800000000
O    -5.826000000    -2.940000000    -2.384000000
H    -6.401000000    -2.793000000    -3.135000000
H    -5.014000000    -2.489000000    -2.613000000
O    -4.111000000     2.136000000     0.183000000
H    -4.585000000     1.424000000     0.612000000
H    -4.664000000     2.379000000    -0.559000000
O     1.682000000    -0.131000000     3.957000000
H     0.856000000     0.349000000     4.030000000
H     1.467000000    -1.021000000     4.237000000
O     7.545000000     0.578000000     0.787000000
H     8.299000000     1.041000000     1.150000000
H     6.825000000     1.206000000     0.848000000
O     1.287000000     4.272000000    -2.677000000
H     1.799000000     5.077000000    -2.755000000
H     1.858000000     3.670000000    -2.201000000
O    -2.282000000    -6.018000000     0.207000000
H    -3.036000000    -5.692000000    -0.284000000
H    -1.758000000    -5.238000000     0.389000000
O     0.553000000    -4.359000000    -2.606000000
H     1.240000000    -3.829000000    -2.201000000
H    -0.105000000    -4.463000000    -1.919000000
O    -0.710000000    -2.325000000    -4.193000000
H    -1.443000000    -2.834000000    -4.537000000
H    -0.077000000    -2.982000000    -3.902000000
O     2.794000000    -4.311000000     3.078000000
H     2.860000000    -4.695000000     3.952000000
H     3.083000000    -3.405000000     3.192000000
O     0.588000000    -7.509000000     0.649000000
H    -0.224000000    -7.004000000     0.668000000
H     0.905000000    -7.487000000     1.552000000
O    -4.949000000     2.175000000    -2.758000000
H    -5.777000000     1.696000000    -2.780000000
H    -4.423000000     1.777000000    -3.453000000
O    -3.989000000    -4.916000000    -1.766000000
H    -3.290000000    -4.278000000    -1.620000000
H    -4.741000000    -4.389000000    -2.036000000
O    -3.348000000    -1.748000000    -3.317000000
H    -2.534000000    -1.453000000    -3.725000000
H    -3.122000000    -1.877000000    -2.396000000
