161
-2994.90806
C    -0.121000000    -1.293000000    -0.574000000
H    -0.158000000    -2.350000000    -0.823000000
C     0.958000000    -0.829000000     0.077000000
H     1.785000000    -1.500000000     0.296000000
C     0.980000000     0.485000000     0.466000000
C     2.222000000     1.021000000     1.244000000
H     2.850000000     0.201000000     1.597000000
H     2.836000000     1.635000000     0.584000000
H     1.952000000     1.603000000     2.128000000
C    -0.121000000     1.310000000     0.240000000
H    -0.121000000     2.338000000     0.592000000
C    -1.247000000     0.761000000    -0.358000000
H    -2.126000000     1.388000000    -0.474000000
C    -1.240000000    -0.536000000    -0.861000000
C    -2.464000000    -1.230000000    -1.258000000
O    -3.526000000    -0.565000000    -1.265000000
O    -2.452000000    -2.438000000    -1.609000000
O    -7.916000000     0.874000000     1.157000000
H    -8.700000000     0.845000000     0.608000000
H    -7.460000000     0.054000000     0.967000000
O    -1.114000000     5.642000000     0.411000000
H    -1.782000000     5.189000000     0.925000000
H    -0.311000000     5.146000000     0.571000000
O    -3.554000000     4.831000000     1.541000000
H    -3.321000000     4.104000000     2.119000000
H    -3.273000000     4.546000000     0.672000000
O    -4.623000000    -2.779000000     1.858000000
H    -3.883000000    -3.233000000     1.455000000
H    -4.625000000    -3.084000000     2.766000000
O    -0.069000000     5.342000000     4.659000000
H     0.004000000     5.521000000     5.597000000
H    -0.022000000     4.389000000     4.593000000
O     0.988000000     0.402000000     4.091000000
H     1.435000000    -0.293000000     3.607000000
H     0.141000000     0.490000000     3.655000000
O     3.180000000     0.077000000    -2.769000000
H     2.253000000    -0.033000000    -2.977000000
H     3.330000000    -0.510000000    -2.028000000
O    -0.988000000    -4.202000000    -2.979000000
H    -1.489000000    -3.630000000    -2.398000000
H    -0.452000000    -3.604000000    -3.500000000
O     4.741000000    -2.514000000    -3.793000000
H     3.972000000    -1.955000000    -3.901000000
H     4.563000000    -3.015000000    -2.997000000
O     2.919000000    -3.837000000    -2.055000000
H     2.372000000    -3.070000000    -2.226000000
H     2.294000000    -4.541000000    -1.878000000
O    -0.036000000     2.791000000     5.163000000
H     0.371000000     2.039000000     4.732000000
H    -0.322000000     2.454000000     6.012000000
O    -1.934000000    -6.674000000    -3.581000000
H    -1.531000000    -5.816000000    -3.450000000
H    -1.740000000    -7.156000000    -2.777000000
O    -1.374000000     0.950000000     2.728000000
H    -1.027000000     0.638000000     1.892000000
H    -2.319000000     1.007000000     2.589000000
O     2.428000000     5.063000000     0.996000000
H     2.165000000     5.901000000     1.375000000
H     3.148000000     4.764000000     1.551000000
O     4.550000000    -1.584000000     0.243000000
H     3.942000000    -2.312000000     0.119000000
H     4.871000000    -1.690000000     1.139000000
O     1.645000000    -1.892000000    -4.086000000
H     1.550000000    -2.803000000    -4.364000000
H     1.087000000    -1.399000000    -4.687000000
O    -2.059000000    -0.014000000    -4.879000000
H    -1.872000000     0.843000000    -5.263000000
H    -1.580000000    -0.633000000    -5.429000000
O     0.174000000     0.994000000    -3.110000000
H    -0.766000000     0.959000000    -3.287000000
H     0.235000000     1.207000000    -2.179000000
O     6.846000000     1.558000000     4.925000000
H     6.179000000     1.525000000     4.239000000
H     7.136000000     2.470000000     4.933000000
O     3.333000000     2.521000000    -3.591000000
H     3.228000000     1.688000000    -3.132000000
H     3.554000000     3.148000000    -2.902000000
O     3.612000000     3.772000000    -1.198000000
H     4.502000000     4.116000000    -1.120000000
H     3.207000000     3.961000000    -0.351000000
O    -5.534000000    -5.944000000    -2.497000000
H    -5.366000000    -6.235000000    -1.601000000
H    -5.411000000    -4.995000000    -2.468000000
O    -3.709000000    -6.565000000     1.157000000
H    -3.184000000    -5.785000000     0.979000000
H    -4.598000000    -6.231000000     1.281000000
O     2.854000000    -3.755000000     1.171000000
H     2.546000000    -4.479000000     0.625000000
H     3.505000000    -4.153000000     1.750000000
O    -1.393000000     4.153000000    -2.324000000
H    -2.216000000     3.866000000    -1.927000000
H    -1.427000000     3.813000000    -3.218000000
O     2.774000000     0.673000000     6.617000000
H     2.849000000    -0.256000000     6.837000000
H     2.100000000     0.704000000     5.937000000
O     8.007000000    -0.572000000     2.667000000
H     7.073000000    -0.723000000     2.522000000
H     8.042000000     0.218000000     3.206000000
O    -7.268000000     0.881000000    -1.901000000
H    -7.252000000     0.055000000    -1.418000000
H    -6.988000000     0.646000000    -2.786000000
O    -3.149000000     3.178000000     3.594000000
H    -2.329000000     2.840000000     3.954000000
H    -3.690000000     3.364000000     4.362000000
O     1.554000000    -5.849000000    -0.821000000
H     2.282000000    -6.198000000    -0.307000000
H     0.775000000    -6.055000000    -0.304000000
O    -3.872000000     3.635000000    -0.960000000
H    -4.270000000     3.666000000    -1.830000000
H    -4.351000000     2.944000000    -0.502000000
O    -6.743000000    -0.574000000    -4.597000000
H    -5.978000000    -0.095000000    -4.278000000
H    -6.563000000    -0.723000000    -5.525000000
O    -4.105000000    -0.086000000     2.646000000
H    -4.296000000    -0.972000000     2.337000000
H    -3.616000000    -0.215000000     3.458000000
O     5.179000000     1.146000000     2.866000000
H     4.848000000     0.323000000     2.505000000
H     4.575000000     1.812000000     2.537000000
O     6.702000000     0.233000000     0.121000000
H     5.896000000    -0.278000000     0.203000000
H     7.214000000    -0.231000000    -0.541000000
O     4.689000000     4.581000000     2.399000000
H     4.716000000     5.114000000     3.193000000
H     5.561000000     4.679000000     2.015000000
O     0.520000000    -1.715000000     6.294000000
H     0.768000000    -1.262000000     5.488000000
H     0.766000000    -2.627000000     6.141000000
O     1.047000000     4.930000000    -1.977000000
H     0.118000000     4.700000000    -2.005000000
H     1.477000000     4.149000000    -1.629000000
O    -2.395000000    -4.133000000     0.575000000
H    -1.457000000    -4.315000000     0.628000000
H    -2.533000000    -3.843000000    -0.326000000
O    -3.880000000    -2.695000000    -4.732000000
H    -4.443000000    -2.912000000    -3.988000000
H    -3.013000000    -2.569000000    -4.347000000
O    -0.367000000    -5.943000000     1.841000000
H    -1.059000000    -5.414000000     2.239000000
H     0.378000000    -5.847000000     2.434000000
O    -4.845000000    -3.378000000    -1.903000000
H    -3.986000000    -2.956000000    -1.879000000
H    -5.311000000    -3.016000000    -1.149000000
O    -4.617000000     1.238000000     0.261000000
H    -4.474000000     0.477000000    -0.302000000
H    -4.432000000     0.920000000     1.145000000
O     5.370000000    -1.682000000     2.980000000
H     5.927000000    -2.460000000     2.958000000
H     5.480000000    -1.333000000     3.865000000
O    -5.154000000     3.265000000    -3.197000000
H    -4.999000000     2.340000000    -3.388000000
H    -5.689000000     3.574000000    -3.928000000
O    -6.368000000    -1.541000000     0.000000000
H    -5.645000000    -1.234000000    -0.547000000
H    -5.942000000    -1.979000000     0.737000000
O    -4.446000000     0.701000000    -3.339000000
H    -3.735000000     0.421000000    -3.916000000
H    -4.437000000     0.067000000    -2.622000000
O     2.095000000    -2.342000000     3.499000000
H     2.716000000    -2.509000000     4.207000000
H     2.555000000    -2.620000000     2.707000000
