161
-3046.14911
C    -0.474000000    -1.257000000     0.616000000
H    -0.603000000    -2.254000000     1.029000000
C     0.773000000    -0.673000000     0.840000000
H     1.529000000    -1.307000000     1.297000000
C     1.094000000     0.579000000     0.314000000
C     2.425000000     1.221000000     0.415000000
H     2.416000000     2.118000000    -0.208000000
H     2.607000000     1.397000000     1.477000000
H     3.147000000     0.563000000    -0.073000000
C     0.150000000     1.153000000    -0.536000000
H     0.334000000     2.135000000    -0.963000000
C    -1.133000000     0.593000000    -0.733000000
H    -1.902000000     1.113000000    -1.298000000
C    -1.436000000    -0.653000000    -0.159000000
C    -2.665000000    -1.374000000    -0.519000000
O    -3.548000000    -0.817000000    -1.194000000
O    -2.719000000    -2.543000000    -0.299000000
O     0.819000000     5.094000000     1.718000000
H     1.757000000     4.923000000     1.629000000
H     0.760000000     6.036000000     1.873000000
O    -3.959000000     4.833000000     1.758000000
H    -3.010000000     4.726000000     1.689000000
H    -4.320000000     4.087000000     1.280000000
O     5.296000000    -0.864000000    -3.025000000
H     5.085000000    -1.585000000    -2.432000000
H     6.102000000    -1.140000000    -3.461000000
O    -0.676000000    -0.019000000     3.319000000
H    -1.142000000     0.815000000     3.377000000
H    -0.440000000    -0.098000000     2.394000000
O    -2.991000000    -5.862000000    -2.252000000
H    -2.190000000    -5.497000000    -1.877000000
H    -3.563000000    -5.105000000    -2.378000000
O    -5.815000000    -5.363000000    -0.987000000
H    -5.976000000    -5.772000000    -1.837000000
H    -5.778000000    -6.095000000    -0.371000000
O    -0.850000000    -3.693000000    -1.920000000
H    -1.521000000    -3.314000000    -1.352000000
H    -0.126000000    -3.900000000    -1.329000000
O     1.140000000     3.558000000     5.369000000
H     0.472000000     4.173000000     5.673000000
H     0.689000000     3.013000000     4.724000000
O    -8.581000000    -1.802000000    -1.115000000
H    -8.342000000    -1.487000000    -1.986000000
H    -7.766000000    -2.152000000    -0.754000000
O    -2.031000000     3.861000000    -1.349000000
H    -1.732000000     3.886000000    -0.440000000
H    -2.763000000     3.243000000    -1.343000000
O    -6.387000000    -2.878000000     0.077000000
H    -6.198000000    -3.751000000    -0.267000000
H    -5.544000000    -2.560000000     0.400000000
O     1.399000000    -1.277000000    -2.585000000
H     0.533000000    -1.671000000    -2.691000000
H     1.414000000    -0.558000000    -3.217000000
O     4.555000000     4.972000000    -1.832000000
H     5.228000000     4.710000000    -1.204000000
H     4.154000000     4.149000000    -2.111000000
O     7.673000000     2.665000000     1.328000000
H     7.864000000     2.260000000     0.482000000
H     6.803000000     2.339000000     1.559000000
O    -5.149000000    -0.381000000     3.621000000
H    -5.646000000    -0.742000000     4.355000000
H    -4.418000000    -0.987000000     3.505000000
O    -6.742000000    -2.119000000    -3.705000000
H    -7.425000000    -1.962000000    -4.357000000
H    -6.389000000    -2.980000000    -3.931000000
O     1.698000000     0.520000000    -4.957000000
H     1.583000000     0.100000000    -5.809000000
H     0.887000000     1.010000000    -4.820000000
O    -3.196000000     0.618000000    -3.635000000
H    -3.944000000     0.341000000    -4.164000000
H    -3.299000000     0.145000000    -2.809000000
O    -0.678000000     1.572000000    -4.446000000
H    -0.529000000     2.493000000    -4.232000000
H    -1.406000000     1.310000000    -3.883000000
O     4.385000000    -4.142000000     4.586000000
H     4.110000000    -3.482000000     3.949000000
H     5.287000000    -4.350000000     4.341000000
O     5.250000000     1.889000000     3.420000000
H     5.214000000     1.981000000     4.373000000
H     4.908000000     1.012000000     3.251000000
O     2.822000000     2.647000000    -3.099000000
H     2.224000000     3.106000000    -3.688000000
H     2.499000000     1.746000000    -3.084000000
O     1.309000000    -6.437000000    -2.047000000
H     1.170000000    -5.749000000    -1.395000000
H     1.490000000    -7.223000000    -1.530000000
O     0.218000000    -4.915000000     3.666000000
H    -0.209000000    -4.896000000     2.809000000
H     1.141000000    -5.076000000     3.469000000
O    -1.382000000    -7.050000000    -0.004000000
H    -1.113000000    -7.814000000     0.506000000
H    -1.003000000    -6.305000000     0.463000000
O     6.834000000    -1.950000000     2.518000000
H     7.387000000    -1.336000000     3.002000000
H     6.763000000    -1.570000000     1.643000000
O    -4.454000000     2.781000000    -1.276000000
H    -4.885000000     2.682000000    -2.125000000
H    -4.746000000     2.022000000    -0.770000000
O    -1.683000000    -1.195000000     5.698000000
H    -1.514000000    -0.788000000     4.848000000
H    -1.056000000    -0.782000000     6.291000000
O     6.597000000    -0.162000000     0.055000000
H     7.228000000     0.403000000    -0.390000000
H     5.844000000    -0.190000000    -0.535000000
O    -1.487000000     3.576000000     1.246000000
H    -1.517000000     3.034000000     2.035000000
H    -0.598000000     3.931000000     1.232000000
O     1.214000000    -4.371000000    -0.265000000
H     1.439000000    -4.788000000     0.566000000
H     1.677000000    -3.534000000    -0.247000000
O    -6.745000000     1.133000000     0.358000000
H    -6.455000000     0.484000000    -0.284000000
H    -7.436000000     1.620000000    -0.091000000
O    -6.935000000     2.423000000    -3.203000000
H    -6.387000000     1.684000000    -2.938000000
H    -7.821000000     2.167000000    -2.946000000
O     3.881000000     4.473000000     2.740000000
H     4.185000000     3.640000000     3.099000000
H     4.555000000     4.721000000     2.107000000
O     3.092000000    -2.187000000    -0.442000000
H     3.809000000    -2.457000000    -1.016000000
H     2.594000000    -1.556000000    -0.962000000
O    -0.726000000     4.126000000    -3.721000000
H    -1.075000000     4.222000000    -2.835000000
H    -0.059000000     4.808000000    -3.792000000
O    -1.648000000    -4.670000000     1.280000000
H    -2.312000000    -5.356000000     1.347000000
H    -1.975000000    -4.087000000     0.594000000
O     5.337000000     2.041000000    -3.023000000
H     4.444000000     2.291000000    -3.257000000
H     5.286000000     1.099000000    -2.857000000
O    -3.150000000    -2.845000000    -4.950000000
H    -2.648000000    -2.043000000    -4.803000000
H    -3.465000000    -3.093000000    -4.080000000
O    -2.102000000    -3.786000000     4.780000000
H    -1.936000000    -2.957000000     5.230000000
H    -1.240000000    -4.067000000     4.472000000
O    -4.232000000    -3.328000000    -2.554000000
H    -3.947000000    -2.833000000    -1.786000000
H    -5.147000000    -3.543000000    -2.374000000
O    -4.949000000     2.145000000     2.181000000
H    -5.570000000     1.887000000     1.500000000
H    -4.925000000     1.399000000     2.780000000
O    -0.630000000    -1.207000000    -4.972000000
H    -0.708000000    -0.264000000    -4.827000000
H    -1.013000000    -1.349000000    -5.838000000
O     3.922000000    -0.510000000     3.934000000
H     3.166000000    -0.357000000     4.501000000
H     3.621000000    -1.165000000     3.304000000
O     4.122000000    -2.849000000     1.958000000
H     4.985000000    -2.482000000     1.766000000
H     3.613000000    -2.692000000     1.164000000
O    -3.221000000    -2.292000000     2.716000000
H    -2.603000000    -2.382000000     1.990000000
H    -2.915000000    -2.921000000     3.370000000
O    -5.878000000    -0.040000000    -2.001000000
H    -6.239000000    -0.724000000    -2.565000000
H    -5.033000000    -0.388000000    -1.714000000
O     1.491000000    -0.260000000     5.179000000
H     0.833000000    -0.226000000     4.485000000
H     1.152000000     0.323000000     5.859000000
