161
-3052.68741
C     0.077000000    -1.434000000    -0.236000000
H     0.295000000    -2.418000000    -0.642000000
C     1.170000000    -0.589000000    -0.074000000
H     2.157000000    -0.899000000    -0.407000000
C     0.990000000     0.683000000     0.301000000
C     2.142000000     1.601000000     0.110000000
H     1.941000000     2.572000000     0.567000000
H     3.041000000     1.253000000     0.623000000
H     2.324000000     1.737000000    -0.959000000
C    -0.310000000     1.192000000     0.425000000
H    -0.366000000     2.270000000     0.548000000
C    -1.421000000     0.377000000     0.194000000
H    -2.378000000     0.862000000     0.374000000
C    -1.252000000    -0.951000000    -0.071000000
C    -2.472000000    -1.853000000    -0.267000000
O    -3.523000000    -1.362000000    -0.511000000
O    -2.418000000    -3.038000000     0.024000000
O     2.600000000     4.305000000    -3.733000000
H     1.724000000     3.973000000    -3.930000000
H     2.452000000     5.024000000    -3.119000000
O     2.742000000     6.990000000     1.259000000
H     3.522000000     7.137000000     0.724000000
H     2.492000000     7.862000000     1.563000000
O    -1.307000000     3.828000000     2.385000000
H    -0.358000000     3.889000000     2.284000000
H    -1.432000000     3.225000000     3.118000000
O     7.055000000     2.691000000    -1.484000000
H     7.529000000     1.952000000    -1.865000000
H     6.397000000     2.918000000    -2.141000000
O    -4.296000000     1.955000000     2.429000000
H    -3.485000000     2.255000000     2.839000000
H    -4.952000000     2.011000000     3.124000000
O    -5.095000000    -3.277000000     0.785000000
H    -4.466000000    -2.691000000     0.363000000
H    -4.924000000    -4.134000000     0.394000000
O     0.443000000    -2.267000000    -3.929000000
H    -0.032000000    -1.654000000    -4.490000000
H    -0.241000000    -2.722000000    -3.438000000
O    -1.751000000    -3.499000000    -2.674000000
H    -1.907000000    -3.571000000    -1.732000000
H    -2.265000000    -4.211000000    -3.057000000
O    -5.692000000    -1.571000000     2.861000000
H    -5.337000000    -2.183000000     2.217000000
H    -6.392000000    -1.113000000     2.394000000
O     3.060000000    -3.266000000     0.507000000
H     3.756000000    -3.738000000     0.964000000
H     2.701000000    -2.672000000     1.166000000
O    -0.560000000     1.874000000    -2.750000000
H    -0.427000000     2.817000000    -2.844000000
H     0.151000000     1.588000000    -2.176000000
O     2.182000000     5.382000000    -0.962000000
H     2.101000000     6.150000000    -0.397000000
H     1.290000000     5.210000000    -1.264000000
O    -3.672000000     0.026000000     4.966000000
H    -3.169000000    -0.788000000     4.999000000
H    -4.079000000     0.020000000     4.099000000
O    -4.983000000    -6.048000000     0.403000000
H    -5.396000000    -6.643000000     1.029000000
H    -4.050000000    -6.256000000     0.455000000
O    -6.266000000     0.753000000    -2.169000000
H    -6.453000000     0.419000000    -1.291000000
H    -5.341000000     0.552000000    -2.309000000
O     3.013000000    -1.891000000    -3.141000000
H     2.058000000    -1.949000000    -3.141000000
H     3.232000000    -1.537000000    -4.003000000
O     1.387000000     4.623000000     2.418000000
H     1.675000000     5.339000000     1.852000000
H     2.198000000     4.196000000     2.695000000
O     4.500000000    -0.247000000     3.163000000
H     4.747000000    -0.090000000     2.252000000
H     5.152000000    -0.870000000     3.484000000
O    -3.335000000     3.651000000    -4.146000000
H    -2.746000000     3.159000000    -3.574000000
H    -2.822000000     4.411000000    -4.421000000
O     4.648000000     2.285000000    -2.886000000
H     4.832000000     2.219000000    -3.823000000
H     3.773000000     2.669000000    -2.840000000
O    -7.778000000    -2.086000000     0.623000000
H    -6.866000000    -2.373000000     0.571000000
H    -8.084000000    -2.094000000    -0.284000000
O    -3.632000000     0.345000000    -2.817000000
H    -3.378000000    -0.247000000    -2.109000000
H    -3.001000000     0.168000000    -3.515000000
O     1.383000000    -5.059000000    -4.558000000
H     0.584000000    -5.349000000    -4.999000000
H     1.241000000    -4.127000000    -4.394000000
O    -0.046000000     4.515000000    -2.746000000
H    -0.004000000     5.423000000    -3.046000000
H    -0.673000000     4.532000000    -2.022000000
O    -1.905000000    -5.581000000    -0.573000000
H    -2.056000000    -4.707000000    -0.211000000
H    -0.963000000    -5.720000000    -0.478000000
O    -0.291000000    -4.876000000     2.448000000
H    -0.141000000    -5.725000000     2.865000000
H     0.536000000    -4.406000000     2.557000000
O     5.563000000    -0.717000000     0.650000000
H     5.135000000    -0.757000000    -0.205000000
H     6.188000000    -1.442000000     0.639000000
O    -3.868000000    -6.979000000    -2.077000000
H    -4.579000000    -6.558000000    -1.593000000
H    -3.078000000    -6.525000000    -1.785000000
O    -5.456000000     0.331000000     0.487000000
H    -5.068000000     0.703000000     1.279000000
H    -4.806000000    -0.297000000     0.173000000
O     2.224000000    -3.509000000     3.371000000
H     1.590000000    -2.805000000     3.232000000
H     2.721000000    -3.234000000     4.142000000
O     5.526000000     2.190000000     1.088000000
H     5.876000000     2.692000000     0.352000000
H     5.851000000     1.301000000     0.948000000
O    -4.262000000    -5.595000000     4.062000000
H    -3.576000000    -5.100000000     3.614000000
H    -4.547000000    -6.245000000     3.420000000
O     4.385000000    -3.974000000    -1.969000000
H     3.959000000    -4.049000000    -1.115000000
H     3.965000000    -3.219000000    -2.381000000
O    -8.248000000     1.195000000     0.544000000
H    -7.302000000     1.063000000     0.598000000
H    -8.595000000     0.761000000     1.323000000
O    -3.570000000     5.138000000     1.430000000
H    -2.683000000     4.877000000     1.676000000
H    -3.850000000     5.726000000     2.131000000
O     3.487000000     3.014000000     2.894000000
H     2.889000000     2.283000000     3.046000000
H     4.159000000     2.657000000     2.313000000
O    -1.925000000     4.057000000    -0.916000000
H    -1.879000000     3.135000000    -0.667000000
H    -2.270000000     4.499000000    -0.140000000
O     0.935000000    -5.785000000    -0.663000000
H     1.378000000    -5.013000000    -0.310000000
H     1.490000000    -6.520000000    -0.402000000
O     5.020000000     4.663000000    -0.773000000
H     4.082000000     4.848000000    -0.725000000
H     5.186000000     4.077000000    -0.035000000
O    -4.951000000    -3.211000000    -2.273000000
H    -4.562000000    -2.492000000    -1.774000000
H    -4.752000000    -3.003000000    -3.186000000
O    -2.665000000    -3.708000000     2.929000000
H    -2.841000000    -3.341000000     2.062000000
H    -1.897000000    -4.264000000     2.801000000
O    -7.733000000    -2.053000000    -2.166000000
H    -7.017000000    -2.633000000    -2.426000000
H    -7.532000000    -1.219000000    -2.590000000
O    -1.344000000     0.050000000    -4.664000000
H    -1.067000000     0.804000000    -4.143000000
H    -0.807000000     0.095000000    -5.455000000
O     0.540000000    -1.519000000     2.876000000
H     0.354000000    -1.462000000     1.938000000
H     0.889000000    -0.657000000     3.104000000
O     5.068000000    -0.293000000    -2.166000000
H     4.424000000    -0.987000000    -2.313000000
H     4.549000000     0.510000000    -2.125000000
O     1.994000000     1.075000000     3.836000000
H     1.786000000     1.572000000     4.627000000
H     2.809000000     0.620000000     4.047000000
O    -6.108000000     3.572000000     0.330000000
H    -5.374000000     3.293000000     0.878000000
H    -6.816000000     2.968000000     0.552000000
O    -1.862000000    -2.136000000     5.167000000
H    -0.972000000    -1.973000000     4.853000000
H    -2.226000000    -2.760000000     4.540000000
