161
-3040.74347
C    -0.714000000    -0.882000000     0.912000000
H    -1.195000000    -1.571000000     1.602000000
C     0.571000000    -0.358000000     1.101000000
H     1.053000000    -0.326000000     2.074000000
C     1.185000000     0.415000000     0.148000000
C     2.536000000     0.971000000     0.480000000
H     2.453000000     1.756000000     1.234000000
H     3.119000000     0.151000000     0.905000000
H     3.077000000     1.394000000    -0.370000000
C     0.471000000     0.718000000    -1.032000000
H     0.808000000     1.355000000    -1.847000000
C    -0.883000000     0.320000000    -1.159000000
H    -1.445000000     0.547000000    -2.062000000
C    -1.431000000    -0.546000000    -0.221000000
C    -2.814000000    -1.182000000    -0.529000000
O    -3.384000000    -1.048000000    -1.599000000
O    -3.403000000    -1.714000000     0.366000000
O     0.489000000     4.292000000     1.781000000
H     0.299000000     3.495000000     1.286000000
H     0.816000000     4.909000000     1.126000000
O    -2.194000000     0.092000000     3.828000000
H    -2.657000000     0.733000000     4.368000000
H    -2.029000000     0.550000000     3.003000000
O     6.982000000     1.827000000    -3.710000000
H     6.026000000     1.783000000    -3.734000000
H     7.189000000     2.713000000    -4.007000000
O    -5.864000000    -3.109000000     0.066000000
H    -5.207000000    -2.520000000     0.436000000
H    -5.359000000    -3.850000000    -0.269000000
O    -0.639000000     0.381000000    -5.154000000
H    -1.037000000     1.226000000    -4.945000000
H    -0.066000000     0.564000000    -5.899000000
O    -3.629000000    -5.058000000    -3.848000000
H    -3.127000000    -4.956000000    -3.040000000
H    -3.711000000    -6.004000000    -3.962000000
O    -0.540000000     2.554000000     4.622000000
H    -0.320000000     1.938000000     3.923000000
H    -0.185000000     3.391000000     4.323000000
O     0.625000000     5.187000000     4.432000000
H    -0.281000000     5.302000000     4.147000000
H     1.076000000     4.838000000     3.663000000
O    -6.830000000    -1.062000000     2.723000000
H    -7.656000000    -1.403000000     2.380000000
H    -6.308000000    -0.871000000     1.944000000
O     0.610000000    -1.697000000    -3.768000000
H    -0.072000000    -1.038000000    -3.900000000
H     1.431000000    -1.207000000    -3.824000000
O    -1.074000000     2.887000000    -4.124000000
H    -0.230000000     3.267000000    -3.879000000
H    -1.717000000     3.387000000    -3.621000000
O     2.268000000    -3.846000000     5.058000000
H     2.363000000    -3.938000000     4.110000000
H     1.554000000    -4.441000000     5.286000000
O     6.250000000     4.363000000    -0.647000000
H     5.458000000     4.444000000    -0.116000000
H     6.563000000     5.262000000    -0.749000000
O    -5.319000000    -1.447000000     4.901000000
H    -6.006000000    -1.279000000     4.256000000
H    -4.664000000    -1.959000000     4.426000000
O    -3.615000000     0.194000000    -3.811000000
H    -3.459000000     0.978000000    -3.285000000
H    -3.621000000    -0.523000000    -3.177000000
O    -4.222000000     3.126000000    -2.163000000
H    -4.588000000     3.746000000    -2.794000000
H    -4.935000000     2.511000000    -1.990000000
O     4.104000000     0.267000000     4.857000000
H     4.930000000     0.680000000     5.107000000
H     3.760000000     0.823000000     4.158000000
O    -2.040000000    -1.906000000    -6.400000000
H    -1.725000000    -1.676000000    -7.274000000
H    -1.795000000    -1.159000000    -5.853000000
O    -1.821000000     4.787000000     0.324000000
H    -2.385000000     5.558000000     0.386000000
H    -2.428000000     4.046000000     0.313000000
O     3.204000000    -4.395000000     2.480000000
H     3.716000000    -5.139000000     2.797000000
H     3.741000000    -3.629000000     2.686000000
O     2.078000000     0.149000000     6.569000000
H     2.356000000    -0.313000000     7.360000000
H     2.816000000     0.058000000     5.967000000
O     4.941000000     2.491000000     3.167000000
H     4.362000000     3.056000000     2.655000000
H     5.695000000     2.341000000     2.597000000
O    -8.440000000    -2.747000000     0.763000000
H    -7.533000000    -2.934000000     0.522000000
H    -8.961000000    -3.152000000     0.069000000
O     4.265000000    -2.228000000    -0.083000000
H     3.342000000    -2.176000000     0.165000000
H     4.738000000    -1.913000000     0.688000000
O    -1.881000000    -2.971000000    -2.810000000
H    -2.378000000    -2.195000000    -2.551000000
H    -1.390000000    -2.694000000    -3.583000000
O     3.836000000     4.315000000    -2.380000000
H     4.132000000     5.212000000    -2.226000000
H     4.342000000     3.786000000    -1.763000000
O    -1.695000000    -4.660000000    -0.335000000
H    -1.045000000    -4.486000000     0.345000000
H    -1.384000000    -4.169000000    -1.096000000
O    -0.048000000    -5.191000000     5.076000000
H    -0.567000000    -5.794000000     4.545000000
H    -0.551000000    -4.376000000     5.074000000
O     4.396000000     1.267000000    -3.774000000
H     3.701000000     0.914000000    -4.329000000
H     4.629000000     0.544000000    -3.191000000
O     1.239000000    -2.998000000    -1.317000000
H     0.729000000    -2.700000000    -0.563000000
H     1.067000000    -2.345000000    -1.995000000
O    -5.304000000     0.386000000     0.422000000
H    -5.973000000     0.619000000    -0.222000000
H    -4.792000000    -0.301000000    -0.004000000
O     0.501000000    -4.191000000     1.381000000
H     0.236000000    -3.688000000     2.151000000
H     1.456000000    -4.235000000     1.440000000
O     1.524000000     3.221000000    -3.580000000
H     2.206000000     3.731000000    -3.143000000
H     1.929000000     2.368000000    -3.740000000
O     0.136000000     6.232000000    -1.656000000
H    -0.034000000     6.390000000    -2.585000000
H    -0.318000000     5.412000000    -1.465000000
O    -6.011000000     0.795000000    -2.650000000
H    -6.138000000     0.516000000    -3.556000000
H    -5.531000000     0.074000000    -2.243000000
O    -1.562000000     1.686000000     1.821000000
H    -1.085000000     1.185000000     1.159000000
H    -2.273000000     2.106000000     1.337000000
O     4.686000000    -2.245000000     3.187000000
H     4.139000000    -1.630000000     3.675000000
H     5.556000000    -2.153000000     3.576000000
O    -6.498000000    -0.053000000    -5.463000000
H    -5.544000000    -0.042000000    -5.385000000
H    -6.734000000     0.856000000    -5.646000000
O     3.969000000     4.087000000     1.110000000
H     4.202000000     4.886000000     1.582000000
H     3.199000000     4.329000000     0.595000000
O     5.192000000    -0.869000000    -2.267000000
H     6.115000000    -0.763000000    -2.036000000
H     4.848000000    -1.472000000    -1.608000000
O    -3.817000000     2.558000000     0.470000000
H    -4.314000000     1.745000000     0.557000000
H    -3.959000000     2.830000000    -0.437000000
O    -5.393000000    -2.542000000    -3.361000000
H    -4.926000000    -3.294000000    -3.725000000
H    -4.824000000    -2.223000000    -2.660000000
O    -4.201000000    -5.550000000    -0.536000000
H    -3.297000000    -5.273000000    -0.690000000
H    -4.143000000    -6.496000000    -0.407000000
O    -7.799000000    -3.319000000    -2.351000000
H    -6.942000000    -2.911000000    -2.477000000
H    -8.286000000    -3.102000000    -3.146000000
O    -3.405000000    -2.032000000     2.918000000
H    -3.659000000    -1.765000000     2.034000000
H    -2.903000000    -1.291000000     3.257000000
O     2.850000000    -0.785000000    -5.229000000
H     2.562000000    -1.698000000    -5.227000000
H     3.172000000    -0.637000000    -6.118000000
O    -0.334000000    -2.094000000     4.193000000
H    -0.746000000    -1.315000000     3.819000000
H    -0.113000000    -1.841000000     5.089000000
O    -4.009000000    -4.601000000     2.154000000
H    -3.467000000    -3.818000000     2.249000000
H    -4.023000000    -4.770000000     1.212000000
