161
-3050.50444
C    -1.324000000     0.224000000    -0.541000000
H    -2.163000000     0.513000000    -1.169000000
C    -0.521000000     1.187000000     0.085000000
H    -0.914000000     2.200000000     0.041000000
C     0.730000000     0.840000000     0.538000000
C     1.587000000     1.939000000     1.162000000
H     2.338000000     2.293000000     0.453000000
H     0.968000000     2.832000000     1.275000000
H     1.959000000     1.660000000     2.150000000
C     1.126000000    -0.474000000     0.561000000
H     2.097000000    -0.820000000     0.907000000
C     0.240000000    -1.481000000     0.006000000
H     0.476000000    -2.542000000     0.019000000
C    -0.926000000    -1.097000000    -0.609000000
C    -1.667000000    -2.124000000    -1.455000000
O    -1.161000000    -3.143000000    -1.849000000
O    -2.848000000    -2.002000000    -1.572000000
O     2.569000000     3.840000000     6.115000000
H     3.225000000     4.278000000     6.656000000
H     2.605000000     4.298000000     5.275000000
O    -5.049000000    -2.761000000    -4.905000000
H    -4.094000000    -2.775000000    -4.852000000
H    -5.311000000    -3.667000000    -4.744000000
O     3.334000000    -4.997000000     3.359000000
H     2.665000000    -4.893000000     4.036000000
H     2.872000000    -5.401000000     2.625000000
O     4.051000000    -4.058000000    -1.592000000
H     4.229000000    -3.786000000    -0.691000000
H     4.320000000    -3.311000000    -2.125000000
O    -1.567000000    -6.065000000    -5.421000000
H    -2.052000000    -6.793000000    -5.810000000
H    -0.853000000    -6.483000000    -4.940000000
O    -6.522000000    -0.875000000     0.702000000
H    -6.469000000    -0.042000000     1.170000000
H    -5.985000000    -0.745000000    -0.080000000
O     2.146000000     1.436000000    -3.338000000
H     2.012000000     1.646000000    -2.414000000
H     3.009000000     1.023000000    -3.367000000
O    -4.210000000    -4.220000000    -0.955000000
H    -5.039000000    -4.173000000    -1.431000000
H    -3.781000000    -3.385000000    -1.139000000
O     1.153000000    -0.935000000     3.228000000
H     0.855000000    -0.714000000     2.346000000
H     2.088000000    -1.114000000     3.128000000
O     4.023000000    -0.860000000     3.427000000
H     4.376000000    -1.025000000     4.301000000
H     4.767000000    -0.520000000     2.928000000
O     3.439000000     1.415000000     5.860000000
H     2.599000000     0.955000000     5.866000000
H     3.203000000     2.342000000     5.813000000
O     6.973000000     3.776000000    -0.302000000
H     6.171000000     4.009000000    -0.769000000
H     7.673000000     3.919000000    -0.939000000
O     0.258000000    -4.853000000    -3.245000000
H    -0.159000000    -5.650000000    -2.917000000
H    -0.266000000    -4.141000000    -2.879000000
O    -3.871000000    -6.738000000    -3.540000000
H    -3.083000000    -6.272000000    -3.822000000
H    -4.594000000    -6.203000000    -3.866000000
O    -3.226000000     0.228000000     3.124000000
H    -3.179000000    -0.031000000     4.044000000
H    -3.268000000    -0.599000000     2.644000000
O    -2.403000000    -3.481000000    -4.293000000
H    -2.066000000    -4.314000000    -4.625000000
H    -2.295000000    -3.541000000    -3.344000000
O    -0.702000000    -2.305000000    -6.062000000
H    -1.494000000    -2.472000000    -5.551000000
H    -0.587000000    -3.096000000    -6.590000000
O    -4.845000000    -0.362000000    -1.810000000
H    -4.073000000    -0.889000000    -1.602000000
H    -5.179000000    -0.738000000    -2.624000000
O     3.222000000     4.467000000     3.532000000
H     3.605000000     3.640000000     3.239000000
H     3.442000000     5.091000000     2.841000000
O    -5.755000000     0.082000000    -5.237000000
H    -5.787000000    -0.820000000    -4.918000000
H    -4.955000000     0.443000000    -4.856000000
O    -2.811000000     4.570000000    -0.349000000
H    -3.227000000     5.431000000    -0.299000000
H    -3.429000000     3.980000000     0.082000000
O     4.857000000    -3.084000000     1.274000000
H     4.195000000    -3.698000000     1.592000000
H     4.922000000    -2.424000000     1.965000000
O    -0.349000000    -5.802000000     2.476000000
H    -0.758000000    -5.511000000     1.661000000
H    -0.365000000    -5.029000000     3.041000000
O     4.297000000     1.865000000     3.123000000
H     4.572000000     2.158000000     3.993000000
H     3.734000000     1.110000000     3.292000000
O    -1.540000000     0.692000000    -6.221000000
H    -2.032000000     0.733000000    -5.401000000
H    -1.229000000    -0.212000000    -6.268000000
O     6.591000000    -0.470000000     1.893000000
H     6.804000000    -0.157000000     1.014000000
H     7.120000000     0.075000000     2.475000000
O    -4.221000000     4.483000000     3.339000000
H    -3.859000000     5.349000000     3.150000000
H    -3.849000000     3.916000000     2.663000000
O     2.350000000    -6.085000000    -1.709000000
H     3.117000000    -5.522000000    -1.817000000
H     1.918000000    -6.069000000    -2.562000000
O     0.816000000     0.567000000     5.615000000
H     0.058000000     1.124000000     5.437000000
H     0.983000000     0.118000000     4.787000000
O     6.546000000     0.684000000    -0.734000000
H     6.673000000     1.632000000    -0.678000000
H     7.306000000     0.369000000    -1.223000000
O     1.797000000    -2.696000000    -4.249000000
H     0.970000000    -2.334000000    -4.567000000
H     1.563000000    -3.552000000    -3.890000000
O    -1.766000000    -5.214000000     0.005000000
H    -1.551000000    -4.535000000    -0.635000000
H    -2.722000000    -5.257000000    -0.005000000
O    -4.028000000     2.487000000     1.366000000
H    -3.632000000     1.706000000     1.751000000
H    -4.922000000     2.222000000     1.152000000
O     4.834000000     0.299000000    -2.890000000
H     4.881000000    -0.651000000    -3.001000000
H     5.117000000     0.449000000    -1.988000000
O     7.224000000     3.031000000     2.342000000
H     7.035000000     3.337000000     1.454000000
H     6.415000000     2.604000000     2.625000000
O    -0.305000000     5.673000000     0.087000000
H    -1.017000000     5.073000000    -0.136000000
H    -0.431000000     5.858000000     1.017000000
O    -3.288000000     0.294000000    -4.008000000
H    -3.167000000     1.047000000    -3.429000000
H    -3.214000000    -0.466000000    -3.431000000
O    -0.469000000     4.388000000     5.130000000
H    -0.403000000     4.638000000     4.209000000
H    -0.823000000     3.499000000     5.113000000
O     1.927000000    -5.492000000     0.828000000
H     1.920000000    -5.470000000    -0.129000000
H     1.031000000    -5.726000000     1.069000000
O     3.761000000     5.896000000     1.188000000
H     3.945000000     5.518000000     0.328000000
H     3.047000000     6.513000000     1.030000000
O     1.010000000     5.815000000     3.198000000
H     1.615000000     5.084000000     3.073000000
H     1.238000000     6.171000000     4.056000000
O    -5.068000000     3.547000000    -2.605000000
H    -4.981000000     4.115000000    -3.370000000
H    -4.272000000     3.015000000    -2.610000000
O    -2.510000000     2.692000000    -2.821000000
H    -2.492000000     3.393000000    -2.170000000
H    -1.669000000     2.763000000    -3.273000000
O     4.802000000     5.138000000    -1.239000000
H     4.858000000     4.868000000    -2.155000000
H     4.744000000     6.092000000    -1.273000000
O    -0.341000000    -3.258000000     3.944000000
H     0.139000000    -2.443000000     3.794000000
H    -1.216000000    -2.975000000     4.209000000
O     0.041000000     3.353000000    -3.980000000
H     0.837000000     2.863000000    -3.773000000
H     0.147000000     4.187000000    -3.523000000
O    -0.956000000     1.968000000     3.675000000
H    -0.632000000     2.128000000     2.788000000
H    -1.563000000     1.234000000     3.579000000
O    -3.273000000    -1.912000000     1.361000000
H    -3.297000000    -1.690000000     0.431000000
H    -3.583000000    -2.816000000     1.400000000
