161
-3036.05477
C    -1.169000000    -0.811000000    -0.403000000
H    -2.156000000    -1.176000000    -0.675000000
C    -1.008000000    -0.004000000     0.711000000
H    -1.875000000     0.197000000     1.335000000
C     0.181000000     0.603000000     1.049000000
C     0.261000000     1.456000000     2.234000000
H    -0.705000000     1.450000000     2.745000000
H     0.998000000     1.070000000     2.940000000
H     0.508000000     2.504000000     2.051000000
C     1.209000000     0.493000000     0.252000000
H     2.079000000     1.127000000     0.404000000
C     1.140000000    -0.284000000    -0.909000000
H     1.986000000    -0.265000000    -1.591000000
C    -0.045000000    -0.991000000    -1.287000000
C    -0.379000000    -1.596000000    -2.554000000
O     0.466000000    -1.749000000    -3.488000000
O    -1.496000000    -2.023000000    -2.807000000
O     4.948000000     2.407000000     2.549000000
H     4.331000000     2.543000000     1.829000000
H     4.618000000     1.632000000     3.003000000
O    -4.313000000    -0.923000000     5.601000000
H    -4.033000000    -1.381000000     6.393000000
H    -3.958000000    -0.039000000     5.697000000
O    -1.829000000     2.664000000    -1.093000000
H    -1.633000000     2.926000000    -1.993000000
H    -1.307000000     1.874000000    -0.954000000
O    -3.737000000    -0.833000000     2.886000000
H    -4.281000000    -1.294000000     3.525000000
H    -2.897000000    -1.291000000     2.912000000
O    -3.508000000    -5.787000000    -0.901000000
H    -4.003000000    -6.333000000    -1.512000000
H    -3.774000000    -4.891000000    -1.112000000
O     1.822000000    -5.159000000    -0.819000000
H     1.950000000    -4.294000000    -1.206000000
H     0.929000000    -5.138000000    -0.474000000
O     1.407000000    -4.203000000     4.562000000
H     0.950000000    -3.371000000     4.439000000
H     0.729000000    -4.807000000     4.865000000
O     4.151000000     1.879000000    -1.376000000
H     5.091000000     1.920000000    -1.202000000
H     4.048000000     1.130000000    -1.964000000
O    -0.493000000    -5.070000000    -3.454000000
H    -0.434000000    -4.163000000    -3.154000000
H    -1.035000000    -5.505000000    -2.796000000
O    -2.159000000     4.715000000     0.711000000
H    -1.310000000     4.930000000     1.097000000
H    -2.038000000     3.842000000     0.338000000
O     0.891000000    -2.607000000     1.458000000
H     0.649000000    -1.802000000     1.000000000
H     1.817000000    -2.732000000     1.249000000
O     2.266000000    -4.526000000    -7.080000000
H     1.710000000    -3.750000000    -7.141000000
H     1.683000000    -5.214000000    -6.759000000
O     4.947000000    -2.779000000    -1.161000000
H     5.804000000    -3.203000000    -1.134000000
H     4.423000000    -3.333000000    -1.739000000
O    -3.851000000     1.894000000     2.489000000
H    -3.928000000     0.967000000     2.714000000
H    -4.719000000     2.135000000     2.166000000
O     2.451000000    -3.087000000    -2.735000000
H     2.942000000    -3.163000000    -3.553000000
H     1.574000000    -2.816000000    -3.007000000
O    -3.891000000    -3.275000000    -1.966000000
H    -4.489000000    -2.609000000    -2.307000000
H    -3.041000000    -3.050000000    -2.344000000
O     2.058000000     3.926000000     4.212000000
H     1.533000000     4.011000000     5.008000000
H     2.412000000     3.037000000     4.253000000
O    -0.892000000    -5.392000000     0.359000000
H    -0.993000000    -5.137000000     1.276000000
H    -1.756000000    -5.245000000    -0.027000000
O    -4.056000000    -1.985000000    -5.553000000
H    -3.961000000    -1.115000000    -5.939000000
H    -3.161000000    -2.318000000    -5.490000000
O     6.933000000     1.862000000    -0.705000000
H     7.654000000     1.245000000    -0.828000000
H     6.858000000     1.958000000     0.244000000
O    -5.753000000    -0.736000000    -2.385000000
H    -5.420000000    -0.435000000    -1.539000000
H    -5.058000000    -0.520000000    -3.007000000
O     4.244000000    -0.223000000    -3.042000000
H     5.067000000    -0.567000000    -3.390000000
H     3.961000000    -0.878000000    -2.404000000
O     0.562000000    -2.674000000    -7.677000000
H    -0.287000000    -2.539000000    -7.257000000
H     0.784000000    -1.820000000    -8.048000000
O     2.646000000     4.052000000    -0.524000000
H     3.036000000     3.181000000    -0.606000000
H     2.228000000     4.207000000    -1.371000000
O     1.671000000     0.361000000    -4.208000000
H     2.587000000     0.238000000    -3.959000000
H     1.224000000    -0.417000000    -3.874000000
O     1.760000000     1.780000000    -6.566000000
H     1.608000000     1.368000000    -5.716000000
H     2.538000000     1.339000000    -6.910000000
O    -0.910000000    -4.140000000     2.627000000
H    -0.125000000    -3.837000000     2.170000000
H    -1.127000000    -3.426000000     3.227000000
O    -0.363000000     1.924000000     5.684000000
H     0.048000000     2.715000000     6.035000000
H    -1.082000000     2.249000000     5.142000000
O    -3.439000000     0.018000000    -3.598000000
H    -2.895000000    -0.583000000    -3.088000000
H    -3.630000000    -0.459000000    -4.406000000
O     5.131000000     5.137000000    -0.361000000
H     5.354000000     5.246000000    -1.286000000
H     4.271000000     4.718000000    -0.370000000
O    -5.090000000     2.576000000    -3.809000000
H    -4.544000000     3.361000000    -3.845000000
H    -4.472000000     1.860000000    -3.665000000
O     3.744000000    -2.612000000     4.525000000
H     4.333000000    -3.103000000     5.098000000
H     2.866000000    -2.845000000     4.827000000
O     1.426000000     2.967000000    -3.054000000
H     0.536000000     3.283000000    -3.209000000
H     1.399000000     2.043000000    -3.304000000
O     3.449000000     6.673000000     3.873000000
H     2.984000000     5.863000000     3.664000000
H     3.234000000     6.843000000     4.790000000
O    -2.149000000     3.328000000     4.049000000
H    -2.414000000     4.247000000     4.089000000
H    -2.623000000     2.975000000     3.296000000
O     2.993000000     1.391000000     4.654000000
H     3.022000000     1.349000000     5.610000000
H     2.548000000     0.586000000     4.392000000
O    -3.716000000     1.614000000     5.530000000
H    -3.182000000     2.167000000     4.960000000
H    -4.030000000     2.206000000     6.213000000
O     3.630000000    -1.915000000     0.921000000
H     4.160000000    -1.401000000     1.531000000
H     4.253000000    -2.220000000     0.261000000
O    -1.027000000    -2.078000000    -5.791000000
H    -0.759000000    -2.010000000    -4.875000000
H    -0.960000000    -1.184000000    -6.127000000
O     5.106000000    -0.759000000     3.114000000
H     5.963000000    -1.157000000     2.958000000
H     4.667000000    -1.364000000     3.712000000
O    -0.700000000     0.370000000    -6.755000000
H    -1.131000000     0.643000000    -5.944000000
H     0.138000000     0.832000000    -6.748000000
O    -0.443000000     7.927000000     2.609000000
H    -0.445000000     7.708000000     3.541000000
H    -0.341000000     7.085000000     2.165000000
O    -4.372000000     0.633000000    -0.381000000
H    -4.012000000     0.842000000     0.481000000
H    -3.980000000     1.279000000    -0.968000000
O    -1.098000000    -2.057000000     4.443000000
H    -1.737000000    -1.971000000     5.151000000
H    -0.615000000    -1.231000000     4.456000000
O     0.774000000     5.465000000     1.930000000
H     0.847000000     4.852000000     2.662000000
H     1.109000000     4.979000000     1.176000000
O    -6.295000000    -2.311000000     1.656000000
H    -5.504000000    -2.827000000     1.500000000
H    -6.333000000    -2.214000000     2.608000000
O    -0.068000000    -6.228000000    -6.030000000
H    -0.955000000    -6.071000000    -6.354000000
H    -0.098000000    -5.965000000    -5.111000000
O     1.255000000    -0.670000000     5.212000000
H     1.854000000    -0.820000000     5.944000000
H     1.034000000     0.259000000     5.270000000
