161
-3051.91131
C    -0.923000000     0.428000000    -1.018000000
H    -1.696000000     0.775000000    -1.699000000
C    -0.643000000     1.153000000     0.130000000
H    -1.226000000     2.068000000     0.198000000
C     0.253000000     0.668000000     1.034000000
C     0.545000000     1.392000000     2.296000000
H     1.562000000     1.326000000     2.687000000
H     0.164000000     2.410000000     2.195000000
H    -0.083000000     0.804000000     2.969000000
C     0.896000000    -0.530000000     0.756000000
H     1.658000000    -0.948000000     1.409000000
C     0.715000000    -1.261000000    -0.416000000
H     1.250000000    -2.200000000    -0.536000000
C    -0.245000000    -0.757000000    -1.343000000
C    -0.649000000    -1.595000000    -2.542000000
O    -0.263000000    -2.697000000    -2.739000000
O    -1.309000000    -1.033000000    -3.379000000
O     4.576000000     1.817000000     3.535000000
H     4.471000000     1.790000000     4.486000000
H     4.924000000     0.955000000     3.308000000
O     2.283000000     4.694000000     2.153000000
H     2.122000000     5.619000000     1.964000000
H     2.814000000     4.701000000     2.949000000
O     4.733000000    -3.271000000     0.079000000
H     4.674000000    -2.742000000    -0.716000000
H     5.065000000    -4.118000000    -0.221000000
O    -6.390000000     1.382000000    -0.211000000
H    -6.069000000     0.598000000    -0.655000000
H    -7.115000000     1.071000000     0.332000000
O    -2.490000000    -1.530000000     1.516000000
H    -1.740000000    -1.169000000     1.044000000
H    -2.581000000    -0.969000000     2.286000000
O     3.035000000     4.220000000    -1.465000000
H     2.312000000     3.593000000    -1.462000000
H     3.527000000     4.021000000    -0.668000000
O    -1.079000000    -2.856000000    -5.560000000
H    -1.055000000    -3.731000000    -5.173000000
H    -1.526000000    -2.317000000    -4.908000000
O    -0.750000000     4.882000000     1.565000000
H     0.196000000     4.777000000     1.465000000
H    -1.006000000     5.449000000     0.837000000
O    -1.928000000    -3.438000000     5.008000000
H    -1.509000000    -3.900000000     4.283000000
H    -1.264000000    -2.820000000     5.314000000
O     1.847000000    -0.131000000    -7.044000000
H     1.355000000     0.170000000    -6.281000000
H     1.184000000    -0.252000000    -7.724000000
O     2.155000000    -3.682000000    -2.425000000
H     2.565000000    -2.904000000    -2.804000000
H     1.217000000    -3.549000000    -2.561000000
O    -4.059000000    -0.186000000    -7.274000000
H    -3.613000000    -1.031000000    -7.320000000
H    -4.594000000    -0.240000000    -6.482000000
O    -3.831000000    -2.889000000    -0.935000000
H    -4.254000000    -3.662000000    -0.562000000
H    -4.016000000    -2.189000000    -0.309000000
O    -5.530000000    -2.500000000    -3.181000000
H    -5.623000000    -3.277000000    -3.732000000
H    -4.807000000    -2.710000000    -2.590000000
O     1.840000000     2.229000000     7.007000000
H     2.786000000     2.302000000     6.886000000
H     1.472000000     2.416000000     6.143000000
O     4.691000000    -1.537000000    -2.248000000
H     4.865000000    -0.815000000    -1.644000000
H     3.869000000    -1.299000000    -2.676000000
O    -2.577000000     3.237000000     2.992000000
H    -3.525000000     3.207000000     2.861000000
H    -2.233000000     3.589000000     2.171000000
O    -5.112000000    -1.219000000     1.141000000
H    -5.438000000    -0.685000000     1.866000000
H    -4.226000000    -1.465000000     1.403000000
O     2.392000000    -1.289000000    -3.891000000
H     1.721000000    -0.684000000    -4.208000000
H     2.475000000    -1.941000000    -4.587000000
O    -5.241000000    -0.541000000    -4.796000000
H    -5.338000000    -1.214000000    -4.122000000
H    -6.132000000    -0.228000000    -4.951000000
O     1.131000000     2.233000000    -2.423000000
H     1.427000000     1.436000000    -2.862000000
H     0.646000000     1.920000000    -1.659000000
O     4.603000000     1.438000000     6.339000000
H     4.067000000     0.645000000     6.323000000
H     5.490000000     1.123000000     6.512000000
O     0.278000000     0.583000000    -4.764000000
H    -0.126000000     1.359000000    -5.152000000
H    -0.431000000     0.159000000    -4.282000000
O    -2.078000000    -2.124000000    -8.018000000
H    -1.609000000    -2.634000000    -7.358000000
H    -1.508000000    -1.375000000    -8.192000000
O    -2.154000000     3.288000000     5.643000000
H    -2.956000000     3.677000000     5.296000000
H    -1.757000000     2.846000000     4.893000000
O    -3.202000000     0.696000000    -3.620000000
H    -3.894000000     0.111000000    -3.926000000
H    -2.494000000     0.109000000    -3.353000000
O     4.454000000     2.912000000     0.923000000
H     3.823000000     3.560000000     1.233000000
H     4.568000000     2.315000000     1.663000000
O     5.795000000    -3.369000000     2.535000000
H     5.708000000    -3.102000000     1.620000000
H     5.535000000    -2.596000000     3.036000000
O     2.899000000    -4.645000000     1.371000000
H     2.562000000    -5.149000000     0.630000000
H     3.617000000    -4.130000000     1.003000000
O    -2.593000000     2.078000000    -6.212000000
H    -2.936000000     2.448000000    -5.398000000
H    -3.111000000     1.286000000    -6.352000000
O    -0.767000000     3.705000000    -3.587000000
H    -0.178000000     3.116000000    -3.117000000
H    -1.617000000     3.581000000    -3.165000000
O     0.591000000    -4.362000000     3.220000000
H     1.162000000    -4.005000000     2.539000000
H     0.538000000    -5.297000000     3.022000000
O    -0.770000000    -7.156000000    -2.862000000
H    -1.236000000    -6.431000000    -2.446000000
H    -1.123000000    -7.940000000    -2.441000000
O     2.871000000    -0.703000000     5.754000000
H     2.825000000    -1.352000000     6.456000000
H     2.912000000    -1.221000000     4.951000000
O    -2.430000000    -5.982000000     0.167000000
H    -2.516000000    -5.481000000     0.978000000
H    -2.163000000    -5.336000000    -0.487000000
O    -0.260000000    -0.495000000     5.528000000
H    -0.338000000    -0.657000000     6.468000000
H     0.668000000    -0.302000000     5.394000000
O    -3.330000000     3.163000000    -2.721000000
H    -3.267000000     2.363000000    -3.242000000
H    -3.936000000     3.720000000    -3.210000000
O     3.002000000    -2.690000000     3.820000000
H     2.483000000    -3.338000000     4.297000000
H     3.248000000    -3.132000000     3.007000000
O    -5.285000000     3.299000000     2.403000000
H    -5.009000000     3.356000000     1.489000000
H    -6.204000000     3.034000000     2.359000000
O     2.164000000    -6.432000000    -4.171000000
H     1.243000000    -6.418000000    -3.911000000
H     2.445000000    -7.333000000    -4.011000000
O    -4.498000000     3.375000000    -0.287000000
H    -5.021000000     2.626000000    -0.571000000
H    -3.880000000     3.521000000    -1.004000000
O    -2.649000000     6.557000000     3.014000000
H    -2.339000000     5.652000000     3.056000000
H    -1.857000000     7.086000000     3.115000000
O    -2.714000000     0.318000000     3.536000000
H    -2.606000000     1.239000000     3.299000000
H    -2.136000000     0.195000000     4.289000000
O     2.031000000    -5.888000000    -0.931000000
H     2.153000000    -5.037000000    -1.351000000
H     1.164000000    -6.175000000    -1.218000000
O    -1.392000000     6.525000000    -0.307000000
H    -1.398000000     7.465000000    -0.486000000
H    -1.325000000     6.118000000    -1.171000000
O    -1.747000000    -4.638000000    -2.134000000
H    -2.571000000    -4.219000000    -2.385000000
H    -1.094000000    -3.942000000    -2.207000000
O     6.483000000     0.036000000     1.231000000
H     6.968000000    -0.773000000     1.070000000
H     5.836000000     0.071000000     0.527000000
O     0.678000000     3.512000000     4.764000000
H     1.095000000     4.256000000     5.199000000
H     0.210000000     3.898000000     4.024000000
