161
-3035.85859
C     0.892000000    -0.894000000    -0.781000000
H     1.666000000    -1.433000000    -1.322000000
C     1.230000000     0.350000000    -0.372000000
H     2.174000000     0.838000000    -0.600000000
C     0.258000000     1.145000000     0.346000000
C     0.674000000     2.499000000     0.838000000
H    -0.178000000     2.946000000     1.354000000
H     1.555000000     2.385000000     1.474000000
H     0.903000000     3.069000000    -0.064000000
C    -0.945000000     0.588000000     0.750000000
H    -1.669000000     1.154000000     1.331000000
C    -1.272000000    -0.688000000     0.311000000
H    -2.229000000    -1.133000000     0.571000000
C    -0.337000000    -1.440000000    -0.465000000
C    -0.756000000    -2.781000000    -0.957000000
O    -1.819000000    -3.301000000    -0.582000000
O    -0.142000000    -3.304000000    -1.826000000
O     4.707000000    -0.503000000    -4.513000000
H     4.862000000     0.295000000    -5.017000000
H     4.768000000    -0.225000000    -3.599000000
O     3.086000000     5.247000000     0.478000000
H     3.012000000     5.255000000    -0.476000000
H     3.448000000     4.385000000     0.683000000
O     2.578000000     0.143000000     2.453000000
H     2.040000000     0.087000000     1.664000000
H     2.172000000    -0.472000000     3.064000000
O    -1.953000000     6.504000000     2.851000000
H    -2.301000000     5.651000000     2.590000000
H    -1.002000000     6.395000000     2.815000000
O    -2.972000000    -3.535000000    -2.993000000
H    -2.852000000    -2.791000000    -3.584000000
H    -2.350000000    -3.379000000    -2.283000000
O    -1.158000000     1.017000000    -2.462000000
H    -0.475000000     0.470000000    -2.850000000
H    -1.091000000     0.850000000    -1.521000000
O    -2.535000000    -6.281000000    -4.380000000
H    -2.445000000    -6.936000000    -3.688000000
H    -2.979000000    -5.546000000    -3.958000000
O     0.869000000    -4.294000000     1.482000000
H     1.277000000    -5.008000000     0.992000000
H     0.483000000    -3.732000000     0.809000000
O     6.442000000     1.046000000    -2.761000000
H     6.675000000     1.685000000    -2.087000000
H     6.226000000     0.252000000    -2.272000000
O     0.033000000     4.247000000    -2.191000000
H     0.853000000     4.334000000    -1.705000000
H    -0.379000000     3.464000000    -1.825000000
O    -1.008000000     3.846000000     4.212000000
H    -1.316000000     3.931000000     5.114000000
H    -1.789000000     3.986000000     3.677000000
O     2.880000000     4.713000000    -2.152000000
H     3.168000000     5.182000000    -2.936000000
H     2.903000000     3.790000000    -2.403000000
O    -2.895000000    -2.908000000     3.627000000
H    -3.658000000    -2.796000000     3.059000000
H    -2.616000000    -2.015000000     3.830000000
O    -3.308000000     0.875000000    -4.093000000
H    -3.673000000     1.755000000    -4.184000000
H    -2.536000000     0.993000000    -3.538000000
O     2.621000000    -5.495000000    -4.503000000
H     2.442000000    -5.294000000    -5.422000000
H     3.309000000    -6.161000000    -4.534000000
O     0.421000000     5.520000000    -5.005000000
H     0.707000000     5.201000000    -4.150000000
H    -0.402000000     5.061000000    -5.170000000
O     2.135000000     3.366000000     4.873000000
H     1.733000000     3.347000000     4.005000000
H     3.040000000     3.092000000     4.725000000
O    -5.700000000     2.073000000     1.221000000
H    -5.147000000     2.263000000     0.463000000
H    -6.487000000     2.600000000     1.082000000
O    -2.432000000     3.619000000    -0.277000000
H    -3.016000000     2.891000000    -0.489000000
H    -2.127000000     3.936000000    -1.127000000
O     4.250000000     2.271000000     1.970000000
H     3.483000000     1.704000000     2.047000000
H     4.530000000     2.419000000     2.874000000
O    -1.602000000    -5.954000000    -1.364000000
H    -0.788000000    -5.922000000    -1.866000000
H    -1.675000000    -5.085000000    -0.970000000
O    -4.542000000    -0.379000000     2.493000000
H    -4.523000000     0.536000000     2.214000000
H    -4.366000000    -0.877000000     1.695000000
O    -3.158000000     4.070000000     2.463000000
H    -4.011000000     4.492000000     2.360000000
H    -2.966000000     3.704000000     1.600000000
O     6.615000000     0.640000000     2.764000000
H     5.885000000     1.200000000     2.500000000
H     6.444000000     0.442000000     3.684000000
O    -4.007000000    -3.282000000     1.174000000
H    -4.673000000    -3.564000000     0.548000000
H    -3.175000000    -3.449000000     0.730000000
O    -2.242000000    -1.632000000    -4.907000000
H    -2.755000000    -0.837000000    -5.054000000
H    -1.356000000    -1.316000000    -4.730000000
O    -4.330000000     1.632000000    -1.228000000
H    -4.195000000     0.713000000    -1.457000000
H    -5.122000000     1.884000000    -1.702000000
O     3.351000000    -5.688000000     0.046000000
H     3.740000000    -6.436000000    -0.408000000
H     3.841000000    -5.625000000     0.866000000
O    -5.169000000    -1.082000000    -1.855000000
H    -5.601000000    -1.836000000    -1.455000000
H    -5.633000000    -0.951000000    -2.683000000
O     1.502000000     6.161000000     2.480000000
H     1.204000000     6.940000000     2.010000000
H     2.051000000     5.695000000     1.849000000
O     5.859000000     2.097000000    -0.088000000
H     5.965000000     3.049000000    -0.092000000
H     5.237000000     1.928000000     0.619000000
O    -4.690000000    -5.433000000    -2.254000000
H    -4.232000000    -6.199000000    -1.908000000
H    -4.005000000    -4.773000000    -2.361000000
O     5.777000000    -1.867000000    -1.598000000
H     5.978000000    -1.915000000    -0.663000000
H     5.123000000    -2.552000000    -1.738000000
O     0.329000000    -1.338000000    -3.829000000
H     0.303000000    -1.974000000    -3.113000000
H     0.996000000    -1.676000000    -4.426000000
O     3.988000000    -4.221000000    -2.454000000
H     3.566000000    -4.887000000    -2.996000000
H     3.673000000    -4.399000000    -1.567000000
O    -1.693000000    -5.176000000     2.696000000
H    -2.071000000    -4.305000000     2.817000000
H    -0.803000000    -5.011000000     2.385000000
O     2.676000000    -1.812000000    -5.399000000
H     3.420000000    -1.454000000    -4.915000000
H     3.067000000    -2.419000000    -6.027000000
O    -6.102000000    -3.465000000     3.208000000
H    -5.785000000    -4.300000000     3.555000000
H    -5.570000000    -3.314000000     2.427000000
O     3.686000000     2.479000000    -3.933000000
H     4.204000000     2.807000000    -4.669000000
H     2.946000000     2.032000000    -4.342000000
O     0.719000000    -8.418000000    -2.671000000
H     0.836000000    -7.479000000    -2.810000000
H    -0.163000000    -8.600000000    -2.995000000
O     4.461000000     1.752000000     4.929000000
H     3.874000000     1.134000000     5.364000000
H     4.777000000     2.319000000     5.633000000
O     0.715000000    -5.684000000    -2.471000000
H     0.510000000    -4.773000000    -2.260000000
H     1.342000000    -5.627000000    -3.192000000
O     1.234000000    -1.632000000     4.863000000
H     0.518000000    -1.351000000     4.292000000
H     0.874000000    -2.370000000     5.354000000
O     5.446000000    -3.045000000    -4.534000000
H     5.328000000    -2.109000000    -4.373000000
H     5.031000000    -3.471000000    -3.784000000
O     1.570000000     0.965000000    -5.419000000
H     1.569000000     0.193000000    -4.853000000
H     0.666000000     1.280000000    -5.396000000
O     0.764000000     6.287000000     5.090000000
H     0.984000000     6.340000000     4.160000000
H     0.321000000     7.114000000     5.280000000
O    -3.431000000    -6.477000000     0.732000000
H    -2.798000000    -6.208000000     1.398000000
H    -2.897000000    -6.687000000    -0.034000000
O    -0.574000000     0.649000000     4.033000000
H    -0.970000000     0.861000000     3.188000000
H    -1.262000000     0.833000000     4.673000000
