161
-3019.27135
C     1.030000000    -0.897000000    -0.526000000
H     1.849000000    -1.426000000    -1.006000000
C     1.222000000     0.440000000    -0.309000000
H     2.140000000     0.952000000    -0.586000000
C     0.217000000     1.163000000     0.337000000
C     0.373000000     2.627000000     0.580000000
H    -0.108000000     3.316000000    -0.117000000
H    -0.017000000     2.818000000     1.582000000
H     1.402000000     2.990000000     0.548000000
C    -1.023000000     0.502000000     0.586000000
H    -1.773000000     1.084000000     1.115000000
C    -1.282000000    -0.812000000     0.145000000
H    -2.285000000    -1.151000000     0.392000000
C    -0.255000000    -1.527000000    -0.344000000
C    -0.444000000    -3.009000000    -0.669000000
O    -1.296000000    -3.666000000    -0.158000000
O     0.250000000    -3.396000000    -1.574000000
O     0.658000000     7.077000000     0.561000000
H     1.161000000     7.481000000    -0.146000000
H     1.060000000     7.412000000     1.363000000
O    -4.648000000    -5.471000000    -4.087000000
H    -3.871000000    -5.282000000    -3.561000000
H    -4.968000000    -4.611000000    -4.360000000
O    -5.834000000     0.878000000    -0.492000000
H    -5.560000000     0.103000000    -0.001000000
H    -6.762000000     0.729000000    -0.676000000
O     0.877000000     5.032000000     2.761000000
H     0.435000000     5.294000000     1.954000000
H     1.531000000     4.392000000     2.479000000
O    -0.447000000     4.312000000     5.025000000
H    -0.282000000     3.372000000     5.097000000
H     0.025000000     4.578000000     4.236000000
O    -0.531000000    -5.749000000    -5.997000000
H    -0.344000000    -5.756000000    -5.059000000
H    -1.452000000    -5.497000000    -6.056000000
O    -0.690000000     0.479000000    -2.727000000
H    -0.805000000     1.269000000    -3.255000000
H    -0.149000000     0.759000000    -1.989000000
O    -3.035000000     3.585000000    -2.014000000
H    -3.091000000     2.964000000    -2.740000000
H    -3.352000000     3.095000000    -1.255000000
O    -2.784000000     6.474000000     4.002000000
H    -2.607000000     5.614000000     4.384000000
H    -2.426000000     6.421000000     3.116000000
O     1.823000000    -4.675000000     0.397000000
H     1.139000000    -4.353000000    -0.190000000
H     2.643000000    -4.437000000    -0.037000000
O    -3.733000000    -2.601000000     4.547000000
H    -3.511000000    -3.064000000     5.355000000
H    -4.292000000    -1.877000000     4.832000000
O    -1.387000000     2.771000000    -4.315000000
H    -0.680000000     2.609000000    -4.940000000
H    -1.140000000     3.587000000    -3.881000000
O     0.203000000     1.621000000     5.205000000
H     0.943000000     1.649000000     5.812000000
H     0.478000000     1.009000000     4.521000000
O     2.822000000    -3.488000000     2.862000000
H     2.501000000    -4.006000000     2.124000000
H     2.991000000    -2.621000000     2.492000000
O     0.083000000     4.671000000    -3.141000000
H     0.384000000     5.577000000    -3.210000000
H     0.869000000     4.174000000    -2.911000000
O    -5.579000000     0.970000000     2.644000000
H    -4.840000000     1.089000000     3.240000000
H    -5.320000000     0.238000000     2.083000000
O    -3.828000000     3.770000000     2.942000000
H    -4.265000000     3.584000000     2.112000000
H    -4.236000000     4.578000000     3.252000000
O     3.457000000     3.620000000     2.433000000
H     4.249000000     3.184000000     2.746000000
H     3.703000000     3.981000000     1.582000000
O    -2.500000000    -4.992000000    -2.176000000
H    -1.855000000    -5.155000000    -2.864000000
H    -1.992000000    -4.621000000    -1.455000000
O    -3.030000000     1.342000000     3.739000000
H    -2.338000000     1.421000000     4.395000000
H    -2.993000000     2.164000000     3.251000000
O    -3.691000000    -4.730000000     0.463000000
H    -2.802000000    -4.435000000     0.267000000
H    -4.140000000    -4.716000000    -0.383000000
O     1.295000000    -2.009000000    -6.256000000
H     0.869000000    -2.214000000    -5.423000000
H     1.824000000    -2.783000000    -6.451000000
O    -1.911000000    -1.513000000    -5.759000000
H    -1.277000000    -1.656000000    -5.056000000
H    -1.434000000    -1.731000000    -6.560000000
O    -2.797000000    -4.750000000     3.059000000
H    -3.044000000    -4.590000000     2.148000000
H    -3.229000000    -4.052000000     3.551000000
O    -3.717000000     0.644000000    -3.028000000
H    -4.060000000     0.428000000    -2.161000000
H    -2.777000000     0.478000000    -2.962000000
O    -3.109000000     6.442000000    -0.708000000
H    -2.936000000     5.504000000    -0.787000000
H    -2.894000000     6.799000000    -1.569000000
O     5.055000000    -3.347000000    -1.651000000
H     5.004000000    -4.300000000    -1.732000000
H     4.405000000    -3.019000000    -2.272000000
O    -5.357000000    -1.426000000     1.146000000
H    -4.622000000    -2.009000000     1.336000000
H    -6.129000000    -1.909000000     1.441000000
O    -4.873000000    -2.895000000    -2.167000000
H    -4.184000000    -3.538000000    -1.996000000
H    -4.667000000    -2.549000000    -3.035000000
O    -4.790000000     3.114000000     0.601000000
H    -4.919000000     2.292000000     0.127000000
H    -5.476000000     3.692000000     0.268000000
O     1.623000000    -7.250000000     1.861000000
H     2.005000000    -6.891000000     2.662000000
H     1.196000000    -6.502000000     1.443000000
O     4.606000000     1.689000000     0.006000000
H     4.455000000     2.629000000     0.106000000
H     5.515000000     1.562000000     0.279000000
O     6.284000000    -1.064000000    -2.911000000
H     6.508000000    -0.361000000    -2.300000000
H     5.923000000    -1.756000000    -2.357000000
O     2.705000000     3.913000000    -2.518000000
H     3.099000000     3.043000000    -2.445000000
H     3.398000000     4.459000000    -2.888000000
O     5.666000000    -1.837000000     0.626000000
H     5.394000000    -2.663000000     0.224000000
H     6.613000000    -1.807000000     0.492000000
O     0.204000000    -1.800000000    -3.847000000
H    -0.232000000    -2.349000000    -3.195000000
H    -0.041000000    -0.906000000    -3.610000000
O     4.312000000     1.587000000    -2.669000000
H     5.211000000     1.890000000    -2.795000000
H     4.314000000     1.183000000    -1.801000000
O     3.095000000    -2.282000000    -3.042000000
H     3.306000000    -1.577000000    -3.654000000
H     2.179000000    -2.492000000    -3.226000000
O     4.088000000     4.486000000    -0.068000000
H     3.488000000     4.253000000    -0.777000000
H     4.750000000     5.037000000    -0.487000000
O    -2.177000000    -8.122000000    -1.185000000
H    -2.675000000    -8.012000000    -1.995000000
H    -2.289000000    -7.293000000    -0.721000000
O    -1.347000000    -0.818000000     3.511000000
H    -1.898000000    -1.243000000     4.168000000
H    -1.863000000    -0.068000000     3.215000000
O    -1.856000000     7.161000000     1.521000000
H    -0.969000000     7.303000000     1.193000000
H    -2.365000000     6.929000000     0.744000000
O    -0.159000000    -5.333000000     3.976000000
H    -0.172000000    -5.592000000     4.898000000
H    -1.041000000    -5.001000000     3.809000000
O    -0.042000000    -5.400000000    -3.163000000
H     0.764000000    -5.794000000    -3.497000000
H     0.255000000    -4.749000000    -2.528000000
O     3.818000000    -0.437000000     1.698000000
H     3.686000000     0.326000000     1.135000000
H     4.479000000    -0.959000000     1.242000000
O     1.369000000    -8.048000000    -0.831000000
H     1.424000000    -8.029000000     0.125000000
H     1.480000000    -7.135000000    -1.096000000
O     4.065000000    -0.593000000    -5.012000000
H     4.680000000    -0.584000000    -4.278000000
H     4.086000000     0.302000000    -5.352000000
O     1.469000000    -0.235000000     3.225000000
H     0.684000000    -0.327000000     2.685000000
H     2.178000000    -0.101000000     2.597000000
