161
-3028.61861
C     0.490000000    -0.287000000    -1.397000000
H     0.629000000    -0.341000000    -2.474000000
C     0.551000000     0.970000000    -0.696000000
H     0.853000000     1.867000000    -1.230000000
C     0.192000000     1.134000000     0.644000000
C     0.045000000     2.401000000     1.365000000
H     0.116000000     3.224000000     0.651000000
H    -0.911000000     2.563000000     1.866000000
H     0.901000000     2.464000000     2.040000000
C    -0.182000000    -0.051000000     1.281000000
H    -0.543000000    -0.113000000     2.305000000
C    -0.368000000    -1.316000000     0.636000000
H    -0.721000000    -2.234000000     1.097000000
C    -0.051000000    -1.401000000    -0.727000000
C    -0.355000000    -2.615000000    -1.530000000
O    -0.151000000    -3.754000000    -1.123000000
O    -0.490000000    -2.504000000    -2.701000000
O    -2.899000000    -0.158000000     0.289000000
H    -3.224000000    -0.324000000     1.174000000
H    -2.063000000    -0.623000000     0.251000000
O     3.401000000    -1.446000000     1.806000000
H     2.928000000    -1.825000000     1.065000000
H     2.744000000    -1.378000000     2.499000000
O    -3.655000000    -0.427000000    -3.710000000
H    -2.735000000    -0.440000000    -3.972000000
H    -3.807000000    -1.291000000    -3.326000000
O    -2.131000000     5.894000000     0.424000000
H    -1.737000000     6.761000000     0.521000000
H    -1.702000000     5.359000000     1.092000000
O     3.441000000     1.852000000    -1.978000000
H     3.665000000     1.044000000    -2.440000000
H     3.347000000     1.587000000    -1.063000000
O     4.256000000    -5.597000000     0.425000000
H     5.073000000    -5.561000000    -0.073000000
H     3.653000000    -6.081000000    -0.139000000
O     2.213000000    -5.339000000    -4.691000000
H     1.771000000    -5.908000000    -4.061000000
H     1.536000000    -4.725000000    -4.975000000
O    -3.742000000    -1.020000000     3.088000000
H    -3.273000000    -0.658000000     3.840000000
H    -4.543000000    -1.389000000     3.460000000
O     5.215000000    -1.246000000    -0.794000000
H     4.494000000    -0.931000000    -1.339000000
H     4.788000000    -1.632000000    -0.030000000
O    -0.392000000     2.414000000    -4.415000000
H     0.201000000     3.151000000    -4.266000000
H    -0.926000000     2.373000000    -3.622000000
O     3.749000000     2.240000000     3.407000000
H     4.550000000     2.095000000     3.911000000
H     3.419000000     3.083000000     3.720000000
O    -1.030000000    -0.558000000    -4.495000000
H    -0.165000000    -0.444000000    -4.887000000
H    -0.881000000    -1.141000000    -3.750000000
O     2.735000000    -3.341000000    -2.857000000
H     2.881000000    -4.004000000    -3.530000000
H     1.788000000    -3.344000000    -2.719000000
O    -4.134000000    -2.478000000    -1.982000000
H    -4.991000000    -2.901000000    -1.922000000
H    -3.990000000    -2.104000000    -1.113000000
O     1.523000000    -1.200000000     3.824000000
H     0.830000000    -1.062000000     4.471000000
H     2.244000000    -0.646000000     4.124000000
O    -1.891000000     3.165000000    -2.379000000
H    -1.656000000     3.735000000    -1.647000000
H    -2.561000000     2.581000000    -2.023000000
O     1.757000000     6.845000000    -0.010000000
H     1.381000000     6.259000000    -0.666000000
H     2.694000000     6.647000000    -0.021000000
O     2.365000000    -3.359000000     0.270000000
H     1.578000000    -3.669000000    -0.178000000
H     3.042000000    -3.992000000     0.030000000
O     0.118000000    -6.148000000     3.322000000
H     0.786000000    -5.501000000     3.096000000
H    -0.434000000    -6.204000000     2.542000000
O     1.641000000    -3.841000000     3.018000000
H     2.091000000    -3.914000000     2.176000000
H     1.472000000    -2.904000000     3.118000000
O    -4.562000000     5.114000000     0.232000000
H    -4.864000000     6.018000000     0.313000000
H    -3.610000000     5.185000000     0.161000000
O    -1.201000000    -5.270000000     0.661000000
H    -0.743000000    -4.817000000    -0.047000000
H    -1.439000000    -4.576000000     1.275000000
O     3.587000000    -0.733000000    -2.952000000
H     2.677000000    -0.537000000    -3.176000000
H     3.674000000    -1.674000000    -3.106000000
O    -2.837000000    -1.286000000    -7.172000000
H    -2.660000000    -2.223000000    -7.095000000
H    -2.296000000    -0.883000000    -6.492000000
O    -3.992000000     1.596000000    -1.705000000
H    -3.976000000     0.873000000    -2.331000000
H    -3.847000000     1.181000000    -0.855000000
O     2.478000000     1.001000000    -5.029000000
H     3.018000000     1.267000000    -5.773000000
H     2.129000000     1.822000000    -4.681000000
O     2.266000000     3.347000000    -3.837000000
H     2.628000000     2.866000000    -3.093000000
H     3.012000000     3.826000000    -4.198000000
O    -4.574000000    -5.110000000     1.443000000
H    -3.678000000    -5.338000000     1.691000000
H    -4.523000000    -4.923000000     0.506000000
O    -0.573000000    -7.094000000    -1.340000000
H    -0.872000000    -6.571000000    -0.596000000
H    -1.349000000    -7.188000000    -1.893000000
O     3.769000000     5.095000000     2.968000000
H     3.722000000     4.650000000     2.122000000
H     4.688000000     5.346000000     3.056000000
O     3.377000000     1.137000000     0.713000000
H     2.700000000     0.468000000     0.813000000
H     3.400000000     1.583000000     1.560000000
O    -1.866000000     5.536000000     3.747000000
H    -2.265000000     6.201000000     4.308000000
H    -2.603000000     5.144000000     3.279000000
O    -2.411000000    -5.011000000    -2.807000000
H    -1.686000000    -4.410000000    -2.633000000
H    -2.516000000    -4.991000000    -3.758000000
O     5.265000000     3.675000000    -0.421000000
H     4.650000000     4.402000000    -0.322000000
H     4.801000000     3.042000000    -0.970000000
O     1.119000000     5.874000000     2.612000000
H     1.204000000     6.196000000     1.715000000
H     1.965000000     5.471000000     2.804000000
O     0.128000000    -3.867000000     5.743000000
H     0.168000000    -3.788000000     4.790000000
H    -0.738000000    -3.532000000     5.976000000
O     2.331000000    -1.962000000    -5.699000000
H     2.508000000    -1.024000000    -5.764000000
H     2.963000000    -2.367000000    -6.294000000
O     0.772000000     4.922000000    -1.866000000
H     1.159000000     4.339000000    -2.520000000
H     0.716000000     5.771000000    -2.304000000
O    -4.920000000    -5.327000000    -1.279000000
H    -5.679000000    -5.295000000    -1.861000000
H    -4.165000000    -5.280000000    -1.867000000
O    -3.158000000     1.034000000     4.994000000
H    -3.596000000     1.835000000     4.707000000
H    -3.450000000     0.913000000     5.898000000
O     2.383000000    -7.270000000    -0.893000000
H     1.600000000    -7.198000000    -1.439000000
H     2.341000000    -8.154000000    -0.529000000
O    -4.515000000     1.514000000     2.557000000
H    -4.182000000     0.682000000     2.892000000
H    -3.926000000     1.735000000     1.836000000
O     0.331000000     5.462000000     5.557000000
H     0.709000000     6.062000000     4.914000000
H    -0.426000000     5.081000000     5.113000000
O     0.032000000    -3.581000000    -5.131000000
H    -0.211000000    -3.057000000    -4.368000000
H     0.583000000    -3.001000000    -5.655000000
O    -2.370000000    -5.197000000    -6.163000000
H    -1.648000000    -4.853000000    -5.637000000
H    -2.159000000    -6.122000000    -6.285000000
O    -0.860000000    -0.347000000     5.302000000
H    -1.066000000     0.532000000     4.987000000
H    -1.712000000    -0.740000000     5.492000000
O    -2.574000000    -3.852000000     3.112000000
H    -2.218000000    -3.454000000     3.907000000
H    -3.400000000    -3.392000000     2.963000000
O    -0.381000000     2.566000000     5.882000000
H     0.252000000     3.243000000     6.120000000
H    -1.235000000     2.969000000     6.041000000
