161
-3067.28143
C     0.473000000     0.783000000    -1.157000000
H     0.716000000     1.481000000    -1.954000000
C    -0.687000000     1.069000000    -0.436000000
H    -1.301000000     1.952000000    -0.598000000
C    -1.057000000     0.215000000     0.567000000
C    -2.351000000     0.516000000     1.317000000
H    -2.180000000     0.658000000     2.386000000
H    -2.694000000     1.489000000     0.958000000
H    -3.088000000    -0.290000000     1.289000000
C    -0.210000000    -0.851000000     1.002000000
H    -0.421000000    -1.567000000     1.793000000
C     0.955000000    -1.159000000     0.221000000
H     1.566000000    -2.035000000     0.425000000
C     1.344000000    -0.282000000    -0.756000000
C     2.603000000    -0.612000000    -1.513000000
O     3.622000000    -1.001000000    -0.870000000
O     2.702000000    -0.372000000    -2.670000000
O    -1.987000000     5.024000000    -1.456000000
H    -2.467000000     4.650000000    -2.195000000
H    -1.098000000     4.683000000    -1.550000000
O     5.625000000    -2.901000000    -4.866000000
H     5.613000000    -1.947000000    -4.939000000
H     4.726000000    -3.135000000    -4.638000000
O    -4.933000000     2.454000000    -0.459000000
H    -5.682000000     1.911000000    -0.704000000
H    -4.396000000     2.492000000    -1.250000000
O     6.068000000     1.411000000    -2.881000000
H     6.307000000     1.977000000    -3.615000000
H     5.564000000     0.702000000    -3.280000000
O     4.649000000     3.822000000     0.859000000
H     4.456000000     2.893000000     0.730000000
H     5.256000000     3.840000000     1.599000000
O     0.492000000     4.064000000    -0.942000000
H     1.054000000     3.455000000    -1.422000000
H     1.033000000     4.845000000    -0.822000000
O    -2.611000000    -0.893000000    -3.964000000
H    -1.729000000    -0.525000000    -4.026000000
H    -2.876000000    -0.729000000    -3.059000000
O     0.682000000    -3.752000000    -2.272000000
H     0.419000000    -4.656000000    -2.100000000
H    -0.107000000    -3.334000000    -2.616000000
O     3.248000000    -4.150000000    -1.009000000
H     2.577000000    -3.678000000    -1.502000000
H     3.678000000    -3.476000000    -0.483000000
O    -3.226000000     1.895000000     4.541000000
H    -3.904000000     2.429000000     4.126000000
H    -3.275000000     2.125000000     5.469000000
O    -0.247000000     2.149000000     4.242000000
H    -1.181000000     2.252000000     4.424000000
H    -0.151000000     2.415000000     3.328000000
O     1.819000000    -3.330000000     3.462000000
H     2.489000000    -3.945000000     3.760000000
H     1.014000000    -3.630000000     3.886000000
O    -0.713000000    -3.309000000     5.073000000
H    -0.167000000    -2.923000000     5.758000000
H    -1.294000000    -2.599000000     4.802000000
O     6.033000000    -1.866000000    -1.807000000
H     5.231000000    -1.526000000    -1.409000000
H     5.749000000    -2.232000000    -2.644000000
O    -0.824000000    -5.515000000     3.440000000
H    -0.798000000    -4.800000000     4.076000000
H    -1.582000000    -6.039000000     3.699000000
O     0.631000000    -0.636000000     4.319000000
H     0.911000000     0.248000000     4.083000000
H     0.903000000    -1.179000000     3.579000000
O     4.064000000     0.135000000     3.886000000
H     3.487000000     0.439000000     3.185000000
H     4.099000000     0.868000000     4.502000000
O     8.687000000    -1.945000000    -1.845000000
H     8.909000000    -1.016000000    -1.895000000
H     7.730000000    -1.963000000    -1.833000000
O     3.163000000    -2.895000000    -3.735000000
H     3.089000000    -1.950000000    -3.598000000
H     2.442000000    -3.268000000    -3.228000000
O     1.610000000    -2.564000000     6.257000000
H     1.646000000    -2.187000000     5.378000000
H     2.460000000    -2.988000000     6.371000000
O    -3.846000000    -0.661000000    -1.559000000
H    -4.697000000    -0.684000000    -1.120000000
H    -3.273000000    -0.201000000    -0.945000000
O    -4.901000000     3.632000000     2.199000000
H    -3.986000000     3.713000000     1.929000000
H    -5.376000000     3.456000000     1.387000000
O    -7.734000000    -0.539000000     1.746000000
H    -7.149000000    -0.254000000     2.448000000
H    -8.342000000     0.192000000     1.630000000
O    -6.546000000    -1.196000000    -0.929000000
H    -6.227000000    -2.051000000    -1.218000000
H    -6.916000000    -1.359000000    -0.062000000
O    -4.885000000    -1.428000000     4.260000000
H    -3.934000000    -1.531000000     4.299000000
H    -5.017000000    -0.503000000     4.054000000
O     0.025000000    -4.321000000     1.067000000
H     0.844000000    -4.809000000     1.146000000
H    -0.394000000    -4.415000000     1.922000000
O     1.237000000     2.372000000    -4.680000000
H     2.049000000     2.877000000    -4.702000000
H     1.127000000     2.055000000    -5.577000000
O     4.492000000    -0.237000000    -4.602000000
H     3.880000000    -0.308000000    -3.870000000
H     4.180000000     0.518000000    -5.102000000
O    -2.145000000    -0.768000000     4.400000000
H    -1.198000000    -0.628000000     4.385000000
H    -2.515000000     0.111000000     4.485000000
O    -2.622000000    -3.973000000    -0.224000000
H    -2.489000000    -4.576000000     0.507000000
H    -1.745000000    -3.651000000    -0.432000000
O     0.171000000    -1.879000000    -6.489000000
H     0.043000000    -2.777000000    -6.181000000
H     0.241000000    -1.359000000    -5.689000000
O    -3.694000000     3.010000000    -2.963000000
H    -4.487000000     3.104000000    -3.492000000
H    -2.987000000     2.933000000    -3.604000000
O     4.969000000     1.055000000     0.061000000
H     4.420000000     0.319000000    -0.212000000
H     5.563000000     1.197000000    -0.677000000
O     6.297000000    -4.591000000     0.904000000
H     5.884000000    -5.071000000     1.621000000
H     5.639000000    -3.952000000     0.632000000
O     0.249000000    -0.105000000    -4.167000000
H     0.351000000     0.810000000    -4.431000000
H     0.880000000    -0.221000000    -3.457000000
O     3.555000000     1.527000000    -6.431000000
H     2.647000000     1.513000000    -6.733000000
H     3.908000000     2.349000000    -6.772000000
O    -6.320000000     1.359000000     3.768000000
H    -6.552000000     1.798000000     4.586000000
H    -5.993000000     2.060000000     3.204000000
O     0.108000000     3.137000000     1.607000000
H     0.380000000     2.984000000     0.701000000
H    -0.825000000     3.341000000     1.545000000
O    -2.360000000     4.501000000     1.915000000
H    -2.118000000     5.022000000     2.681000000
H    -2.516000000     5.147000000     1.226000000
O     1.916000000     1.064000000     2.065000000
H     1.427000000     1.878000000     1.941000000
H     1.758000000     0.565000000     1.264000000
O    -1.470000000     2.722000000    -4.447000000
H    -0.570000000     3.023000000    -4.569000000
H    -1.754000000     2.455000000    -5.321000000
O     2.909000000     3.144000000    -1.669000000
H     3.507000000     3.539000000    -1.034000000
H     3.473000000     2.605000000    -2.225000000
O    -5.927000000     5.110000000    -0.862000000
H    -5.102000000     4.647000000    -0.720000000
H    -5.678000000     5.904000000    -1.335000000
O     5.094000000    -5.190000000    -2.715000000
H     4.259000000    -4.753000000    -2.884000000
H     4.943000000    -5.694000000    -1.916000000
O     4.180000000    -2.577000000     1.466000000
H     3.826000000    -1.871000000     0.925000000
H     3.443000000    -2.856000000     2.008000000
O    -2.330000000     6.935000000     0.377000000
H    -1.395000000     7.026000000     0.559000000
H    -2.370000000     6.374000000    -0.398000000
O    -5.495000000    -3.899000000    -0.555000000
H    -5.584000000    -4.811000000    -0.831000000
H    -4.568000000    -3.804000000    -0.336000000
O     6.510000000    -0.847000000     2.720000000
H     5.948000000    -1.538000000     2.370000000
H     5.997000000    -0.046000000     2.619000000
