161
-3069.50474
C     0.231000000     0.647000000    -1.309000000
H     0.300000000     1.247000000    -2.212000000
C    -1.024000000     0.717000000    -0.622000000
H    -1.885000000     1.259000000    -1.006000000
C    -1.070000000     0.072000000     0.627000000
C    -2.343000000    -0.046000000     1.440000000
H    -3.045000000    -0.824000000     1.132000000
H    -2.007000000    -0.271000000     2.454000000
H    -2.870000000     0.906000000     1.346000000
C     0.093000000    -0.536000000     1.134000000
H     0.021000000    -1.064000000     2.081000000
C     1.245000000    -0.638000000     0.356000000
H     2.114000000    -1.073000000     0.844000000
C     1.315000000    -0.092000000    -0.909000000
C     2.653000000    -0.091000000    -1.619000000
O     3.551000000    -0.640000000    -1.047000000
O     2.725000000     0.428000000    -2.689000000
O    -2.130000000     5.235000000    -0.550000000
H    -2.715000000     4.577000000    -0.926000000
H    -1.258000000     4.846000000    -0.617000000
O     4.222000000    -2.375000000    -5.867000000
H     4.713000000    -1.730000000    -6.376000000
H     4.355000000    -2.113000000    -4.956000000
O    -5.273000000     3.306000000    -0.561000000
H    -5.279000000     2.457000000    -1.003000000
H    -4.876000000     3.903000000    -1.195000000
O     6.334000000     3.030000000    -3.469000000
H     5.724000000     3.766000000    -3.433000000
H     5.790000000     2.280000000    -3.713000000
O     0.270000000     4.127000000    -1.238000000
H     0.924000000     3.736000000    -1.817000000
H     0.758000000     4.357000000    -0.446000000
O    -1.571000000    -0.236000000    -4.600000000
H    -1.782000000     0.520000000    -5.148000000
H    -0.616000000    -0.232000000    -4.543000000
O     3.067000000    -4.937000000    -0.953000000
H     2.464000000    -4.666000000    -1.645000000
H     3.236000000    -5.862000000    -1.131000000
O    -0.644000000    -2.473000000    -1.793000000
H    -0.457000000    -1.537000000    -1.720000000
H    -1.020000000    -2.709000000    -0.946000000
O     6.470000000    -4.323000000     0.826000000
H     6.139000000    -5.010000000     1.404000000
H     5.748000000    -3.697000000     0.760000000
O    -2.592000000    -5.532000000     3.448000000
H    -2.082000000    -4.727000000     3.544000000
H    -2.006000000    -6.224000000     3.753000000
O    -6.174000000    -2.318000000     3.434000000
H    -6.807000000    -1.607000000     3.332000000
H    -5.442000000    -1.921000000     3.906000000
O     4.268000000    -2.979000000     0.417000000
H     3.721000000    -3.483000000    -0.186000000
H     4.419000000    -2.149000000    -0.035000000
O    -2.577000000     2.334000000     4.421000000
H    -2.764000000     3.110000000     3.893000000
H    -2.489000000     2.667000000     5.314000000
O    -0.382000000     0.717000000     4.412000000
H    -1.276000000     1.028000000     4.268000000
H     0.108000000     1.037000000     3.654000000
O     2.033000000    -3.863000000     4.557000000
H     2.686000000    -3.854000000     5.257000000
H     2.368000000    -3.242000000     3.909000000
O    -2.311000000    -2.211000000     5.272000000
H    -2.500000000    -1.742000000     6.085000000
H    -2.911000000    -1.831000000     4.631000000
O     6.642000000    -0.866000000    -3.227000000
H     5.844000000    -1.394000000    -3.203000000
H     6.476000000    -0.211000000    -3.904000000
O    -0.899000000    -3.411000000     3.267000000
H    -1.197000000    -2.687000000     3.817000000
H     0.032000000    -3.501000000     3.473000000
O    -0.119000000     0.421000000     7.166000000
H    -0.924000000     0.601000000     7.651000000
H    -0.371000000     0.496000000     6.246000000
O     8.377000000    -0.445000000    -1.109000000
H     8.117000000     0.460000000    -0.936000000
H     7.751000000    -0.753000000    -1.764000000
O     4.333000000    -2.123000000    -3.019000000
H     4.134000000    -1.499000000    -2.321000000
H     3.647000000    -2.787000000    -2.949000000
O     1.295000000    -2.159000000     7.104000000
H     1.078000000    -1.298000000     6.747000000
H     0.782000000    -2.773000000     6.579000000
O    -2.392000000    -2.743000000    -4.198000000
H    -2.220000000    -1.803000000    -4.252000000
H    -1.999000000    -3.010000000    -3.367000000
O    -5.444000000     3.830000000     2.214000000
H    -4.605000000     4.268000000     2.359000000
H    -5.439000000     3.604000000     1.284000000
O    -7.257000000     0.144000000     2.570000000
H    -7.326000000     0.851000000     3.211000000
H    -8.061000000     0.209000000     2.054000000
O    -6.352000000    -0.291000000     0.100000000
H    -5.708000000    -0.964000000    -0.120000000
H    -6.232000000    -0.141000000     1.037000000
O     1.114000000    -5.414000000     1.033000000
H     1.488000000    -5.681000000     1.873000000
H     1.870000000    -5.162000000     0.503000000
O     0.457000000     3.153000000    -5.425000000
H     0.897000000     2.808000000    -4.648000000
H     1.137000000     3.644000000    -5.887000000
O     4.755000000     0.966000000    -4.408000000
H     4.016000000     0.648000000    -3.889000000
H     4.362000000     1.261000000    -5.229000000
O    -4.076000000    -0.620000000     3.883000000
H    -3.800000000     0.253000000     4.163000000
H    -4.477000000    -0.480000000     3.025000000
O    -2.226000000    -3.172000000     0.635000000
H    -2.595000000    -4.033000000     0.833000000
H    -1.541000000    -3.048000000     1.293000000
O     0.700000000    -3.167000000    -6.072000000
H    -0.121000000    -3.549000000    -5.761000000
H     0.802000000    -2.366000000    -5.557000000
O    -3.234000000     4.011000000    -2.860000000
H    -3.962000000     4.370000000    -3.367000000
H    -2.776000000     3.436000000    -3.474000000
O     5.305000000     0.598000000     0.502000000
H     4.905000000     0.113000000    -0.220000000
H     5.903000000     1.212000000     0.076000000
O    -0.698000000     5.861000000    -3.474000000
H    -0.632000000     5.074000000    -2.933000000
H    -0.993000000     5.541000000    -4.327000000
O     1.218000000    -0.674000000    -4.664000000
H     1.723000000    -0.320000000    -5.396000000
H     1.820000000    -0.643000000    -3.920000000
O     2.478000000     0.714000000    -6.650000000
H     3.065000000     0.444000000    -7.355000000
H     1.782000000     1.201000000    -7.091000000
O     1.289000000     2.379000000     1.673000000
H     1.399000000     3.097000000     1.051000000
H     0.687000000     1.775000000     1.238000000
O    -2.676000000     4.493000000     2.548000000
H    -2.084000000     5.145000000     2.923000000
H    -2.212000000     4.163000000     1.779000000
O     1.450000000    -3.462000000    -3.100000000
H     0.589000000    -3.258000000    -2.734000000
H     1.260000000    -3.915000000    -3.921000000
O     3.905000000     1.466000000     2.670000000
H     4.181000000     1.202000000     1.793000000
H     3.047000000     1.870000000     2.540000000
O    -2.349000000     2.599000000    -5.103000000
H    -1.408000000     2.776000000    -5.078000000
H    -2.683000000     3.175000000    -5.791000000
O     2.101000000     3.035000000    -3.149000000
H     2.285000000     2.105000000    -3.020000000
H     2.933000000     3.472000000    -2.970000000
O     7.112000000     2.074000000    -0.675000000
H     6.585000000     2.401000000    -1.403000000
H     7.807000000     2.725000000    -0.571000000
O     3.457000000    -2.231000000     2.919000000
H     3.806000000    -2.621000000     2.118000000
H     3.846000000    -1.357000000     2.949000000
O     2.083000000     4.758000000     0.471000000
H     2.996000000     4.864000000     0.202000000
H     2.093000000     4.908000000     1.416000000
O    -4.484000000    -2.273000000    -0.508000000
H    -4.487000000    -3.066000000    -1.042000000
H    -3.764000000    -2.402000000     0.109000000
O     7.563000000    -0.639000000     1.537000000
H     6.658000000    -0.371000000     1.376000000
H     7.917000000    -0.820000000     0.666000000
