161
-3071.12792
C     0.172000000     0.052000000    -1.435000000
H     0.229000000     0.332000000    -2.484000000
C    -1.045000000     0.220000000    -0.784000000
H    -1.933000000     0.480000000    -1.356000000
C    -1.113000000     0.097000000     0.581000000
C    -2.341000000     0.484000000     1.298000000
H    -3.146000000     0.492000000     0.560000000
H    -2.578000000    -0.218000000     2.101000000
H    -2.253000000     1.503000000     1.679000000
C     0.055000000    -0.258000000     1.284000000
H    -0.109000000    -0.397000000     2.350000000
C     1.218000000    -0.504000000     0.571000000
H     2.108000000    -0.791000000     1.125000000
C     1.350000000    -0.295000000    -0.788000000
C     2.750000000    -0.377000000    -1.398000000
O     3.801000000    -0.446000000    -0.698000000
O     2.836000000    -0.376000000    -2.613000000
O    -0.846000000     5.013000000    -1.589000000
H    -1.377000000     4.438000000    -2.141000000
H    -0.015000000     4.549000000    -1.489000000
O    -4.702000000     3.379000000    -1.133000000
H    -4.879000000     2.465000000    -1.354000000
H    -5.127000000     3.880000000    -1.828000000
O     6.572000000     2.123000000    -4.861000000
H     5.938000000     2.403000000    -5.521000000
H     6.120000000     1.437000000    -4.370000000
O     6.805000000     2.666000000    -0.538000000
H     7.438000000     2.479000000    -1.231000000
H     6.184000000     3.275000000    -0.937000000
O     1.976000000     4.334000000    -1.326000000
H     2.160000000     3.511000000    -1.778000000
H     2.197000000     4.160000000    -0.411000000
O    -2.240000000    -0.932000000    -4.196000000
H    -2.617000000    -0.070000000    -4.024000000
H    -1.821000000    -0.844000000    -5.053000000
O     3.684000000    -4.504000000    -1.835000000
H     2.738000000    -4.366000000    -1.791000000
H     3.789000000    -5.263000000    -2.409000000
O    -2.429000000    -2.728000000    -0.367000000
H    -2.025000000    -2.557000000     0.484000000
H    -3.040000000    -2.002000000    -0.492000000
O     6.634000000    -4.090000000    -1.667000000
H     7.063000000    -3.425000000    -1.127000000
H     5.705000000    -3.863000000    -1.633000000
O    -2.161000000    -3.807000000     4.215000000
H    -1.586000000    -4.083000000     3.502000000
H    -2.447000000    -4.624000000     4.623000000
O     0.652000000    -3.175000000    -4.852000000
H     0.925000000    -2.270000000    -5.003000000
H    -0.014000000    -3.112000000    -4.167000000
O    -7.216000000    -0.757000000     1.252000000
H    -7.723000000    -1.430000000     0.798000000
H    -6.382000000    -1.180000000     1.454000000
O     4.877000000    -1.659000000     1.310000000
H     4.290000000    -2.371000000     1.565000000
H     4.434000000    -1.234000000     0.576000000
O    -4.353000000     2.166000000     3.539000000
H    -4.298000000     2.741000000     2.776000000
H    -3.469000000     1.809000000     3.633000000
O    -1.513000000     1.662000000     4.748000000
H    -1.488000000     2.171000000     5.558000000
H    -0.904000000     2.113000000     4.163000000
O     1.255000000    -3.223000000     5.093000000
H     0.597000000    -2.822000000     5.661000000
H     1.841000000    -2.503000000     4.860000000
O     4.296000000     0.250000000    -5.734000000
H     4.964000000     0.175000000    -6.415000000
H     3.479000000     0.387000000    -6.214000000
O     7.748000000    -1.564000000    -4.017000000
H     7.375000000    -2.445000000    -4.035000000
H     7.024000000    -1.003000000    -3.739000000
O     0.098000000    -4.416000000     2.806000000
H     0.662000000    -4.163000000     3.537000000
H     0.668000000    -4.379000000     2.038000000
O     4.061000000    -2.204000000    -3.906000000
H     3.489000000    -1.494000000    -3.614000000
H     4.042000000    -2.838000000    -3.188000000
O     3.120000000    -1.168000000     4.778000000
H     3.526000000    -0.618000000     4.108000000
H     2.868000000    -0.556000000     5.469000000
O    -1.182000000    -2.887000000    -2.835000000
H    -1.574000000    -2.890000000    -1.962000000
H    -1.600000000    -2.151000000    -3.283000000
O    -3.927000000     3.800000000     1.499000000
H    -3.158000000     4.368000000     1.563000000
H    -3.929000000     3.500000000     0.591000000
O    -7.422000000     2.122000000     0.799000000
H    -7.426000000     2.592000000     1.633000000
H    -7.321000000     1.202000000     1.044000000
O    -5.518000000     0.801000000    -1.004000000
H    -5.276000000    -0.036000000    -0.606000000
H    -6.167000000     1.171000000    -0.406000000
O     1.827000000    -4.346000000     0.769000000
H     2.628000000    -4.486000000     1.274000000
H     2.134000000    -4.166000000    -0.120000000
O     1.796000000     2.914000000    -5.734000000
H     2.198000000     2.875000000    -4.866000000
H     1.377000000     3.774000000    -5.766000000
O     5.606000000     0.306000000    -3.055000000
H     5.037000000    -0.106000000    -2.405000000
H     5.076000000     0.339000000    -3.851000000
O    -3.501000000    -0.296000000     5.321000000
H    -4.041000000    -0.578000000     4.582000000
H    -3.030000000     0.471000000     4.994000000
O    -4.193000000    -2.499000000     2.782000000
H    -3.452000000    -2.976000000     3.156000000
H    -4.940000000    -2.755000000     3.324000000
O    -0.567000000    -1.043000000    -7.092000000
H    -0.203000000    -1.704000000    -7.682000000
H     0.080000000    -0.966000000    -6.391000000
O    -2.592000000     3.675000000    -2.984000000
H    -3.469000000     3.854000000    -2.645000000
H    -2.730000000     3.024000000    -3.672000000
O     3.928000000     1.857000000     0.403000000
H     3.784000000     0.959000000     0.105000000
H     4.880000000     1.961000000     0.398000000
O     1.308000000    -0.413000000    -4.838000000
H     1.406000000     0.518000000    -5.041000000
H     1.766000000    -0.526000000    -4.005000000
O     5.532000000    -2.428000000    -6.279000000
H     5.700000000    -1.744000000    -6.927000000
H     4.821000000    -2.079000000    -5.741000000
O    -1.072000000    -1.900000000     6.069000000
H    -1.394000000    -2.544000000     5.439000000
H    -1.784000000    -1.265000000     6.149000000
O     0.535000000     2.436000000     3.120000000
H     0.783000000     3.280000000     2.741000000
H     0.787000000     1.793000000     2.459000000
O    -1.599000000     5.347000000     1.352000000
H    -0.847000000     5.651000000     1.860000000
H    -1.289000000     5.335000000     0.447000000
O     0.884000000    -4.681000000    -2.094000000
H     0.260000000    -4.065000000    -1.709000000
H     0.384000000    -5.134000000    -2.773000000
O     4.117000000     1.730000000     3.548000000
H     3.811000000     2.276000000     2.824000000
H     3.765000000     2.152000000     4.332000000
O    -2.430000000     1.800000000    -5.152000000
H    -1.727000000     1.967000000    -5.780000000
H    -3.235000000     1.935000000    -5.652000000
O     3.229000000     2.220000000    -3.202000000
H     3.375000000     1.291000000    -3.025000000
H     4.109000000     2.590000000    -3.277000000
O    -6.346000000    -0.258000000    -3.501000000
H    -6.158000000     0.217000000    -2.691000000
H    -6.934000000    -0.965000000    -3.233000000
O     6.069000000    -0.091000000     3.084000000
H     5.795000000    -0.749000000     2.446000000
H     5.304000000     0.475000000     3.188000000
O     2.319000000     3.993000000     1.413000000
H     2.815000000     3.236000000     1.102000000
H     2.986000000     4.646000000     1.625000000
O    -4.849000000    -1.570000000     0.106000000
H    -4.990000000    -2.304000000    -0.492000000
H    -4.530000000    -1.976000000     0.912000000
O     7.380000000    -2.237000000     0.020000000
H     6.534000000    -2.250000000     0.467000000
H     7.995000000    -1.920000000     0.681000000
O     0.861000000    -0.107000000     6.913000000
H     0.391000000     0.714000000     7.057000000
H     0.194000000    -0.710000000     6.585000000
