161
-3002.38330
C     1.063000000    -1.022000000    -0.124000000
H     1.669000000    -1.891000000    -0.368000000
C    -0.336000000    -1.166000000    -0.302000000
H    -0.705000000    -2.156000000    -0.560000000
C    -1.244000000    -0.171000000    -0.173000000
C    -2.704000000    -0.444000000    -0.359000000
H    -3.197000000     0.408000000    -0.831000000
H    -2.965000000    -1.270000000    -1.024000000
H    -3.267000000    -0.517000000     0.574000000
C    -0.735000000     1.078000000     0.180000000
H    -1.412000000     1.903000000     0.382000000
C     0.654000000     1.275000000     0.395000000
H     1.111000000     2.251000000     0.538000000
C     1.599000000     0.227000000     0.234000000
C     3.102000000     0.446000000     0.390000000
O     3.473000000     1.516000000     0.678000000
O     3.887000000    -0.468000000     0.366000000
O     2.217000000    -1.792000000    -3.613000000
H     1.882000000    -2.063000000    -4.468000000
H     3.138000000    -2.052000000    -3.623000000
O     0.683000000     6.062000000    -0.415000000
H     0.097000000     6.799000000    -0.243000000
H     0.405000000     5.729000000    -1.268000000
O     6.195000000     3.368000000     1.733000000
H     6.783000000     3.314000000     2.487000000
H     5.318000000     3.398000000     2.115000000
O     3.783000000     0.176000000     3.508000000
H     4.535000000    -0.321000000     3.184000000
H     3.498000000     0.695000000     2.756000000
O    -6.104000000     0.740000000     2.019000000
H    -5.423000000     1.126000000     1.468000000
H    -6.324000000     1.428000000     2.646000000
O    -1.490000000    -5.741000000    -3.512000000
H    -0.941000000    -6.432000000    -3.141000000
H    -2.371000000    -5.937000000    -3.193000000
O    -3.238000000     0.926000000    -5.274000000
H    -3.388000000     1.794000000    -5.647000000
H    -2.287000000     0.858000000    -5.199000000
O     1.487000000    -4.352000000     2.270000000
H     2.077000000    -3.706000000     2.658000000
H     0.661000000    -4.233000000     2.739000000
O     5.220000000    -6.227000000     0.571000000
H     4.469000000    -5.656000000     0.411000000
H     5.555000000    -6.434000000    -0.302000000
O    -2.429000000    -3.113000000    -4.758000000
H    -2.124000000    -2.904000000    -5.641000000
H    -1.626000000    -3.242000000    -4.253000000
O    -0.133000000    -5.321000000     0.139000000
H     0.686000000    -5.084000000     0.573000000
H    -0.098000000    -4.866000000    -0.703000000
O    -7.657000000    -3.972000000     0.727000000
H    -6.972000000    -3.418000000     1.099000000
H    -8.042000000    -3.442000000     0.029000000
O     1.195000000    -4.039000000    -2.114000000
H     1.618000000    -3.211000000    -2.343000000
H     0.537000000    -4.168000000    -2.797000000
O    -6.138000000    -2.030000000     1.701000000
H    -5.572000000    -2.234000000     2.445000000
H    -6.173000000    -1.073000000     1.682000000
O    -4.657000000     3.830000000    -3.465000000
H    -4.407000000     3.226000000    -4.164000000
H    -5.309000000     3.349000000    -2.955000000
O     2.077000000    -0.663000000     5.807000000
H     2.322000000    -1.577000000     5.950000000
H     2.646000000    -0.371000000     5.095000000
O    -0.078000000     5.373000000     4.488000000
H    -0.335000000     4.485000000     4.736000000
H    -0.305000000     5.437000000     3.560000000
O     0.667000000     0.490000000    -2.599000000
H     0.548000000     0.496000000    -1.649000000
H     1.007000000    -0.383000000    -2.792000000
O     2.400000000     4.058000000     5.588000000
H     1.763000000     4.681000000     5.239000000
H     2.843000000     3.710000000     4.814000000
O     5.018000000     3.028000000     4.611000000
H     4.554000000     3.059000000     3.774000000
H     4.649000000     2.269000000     5.062000000
O    -2.977000000     3.653000000    -1.413000000
H    -3.209000000     3.825000000    -2.325000000
H    -2.124000000     4.072000000    -1.300000000
O     2.365000000    -6.634000000    -3.045000000
H     1.541000000    -6.708000000    -3.527000000
H     2.335000000    -5.761000000    -2.652000000
O     5.170000000    -2.743000000     0.996000000
H     4.222000000    -2.825000000     0.891000000
H     5.361000000    -1.839000000     0.746000000
O    -3.775000000    -1.262000000    -3.680000000
H    -3.300000000    -2.007000000    -4.047000000
H    -3.451000000    -0.506000000    -4.171000000
O    -8.680000000     0.428000000     0.730000000
H    -8.908000000    -0.482000000     0.541000000
H    -7.793000000     0.383000000     1.088000000
O    -4.547000000    -1.038000000     5.568000000
H    -4.297000000    -0.126000000     5.718000000
H    -3.765000000    -1.442000000     5.193000000
O     7.622000000    -0.819000000    -1.314000000
H     7.187000000    -0.230000000    -0.698000000
H     6.907000000    -1.280000000    -1.751000000
O    -1.542000000     3.082000000     4.301000000
H    -0.984000000     2.494000000     4.809000000
H    -1.631000000     2.653000000     3.450000000
O    -6.601000000    -1.499000000    -4.364000000
H    -5.667000000    -1.288000000    -4.356000000
H    -7.032000000    -0.684000000    -4.108000000
O     4.321000000     4.700000000    -2.538000000
H     3.618000000     4.154000000    -2.887000000
H     4.514000000     4.323000000    -1.679000000
O     5.334000000     2.860000000    -0.822000000
H     5.929000000     3.350000000    -0.255000000
H     4.730000000     2.428000000    -0.218000000
O    -1.453000000    -4.169000000     2.833000000
H    -2.374000000    -4.043000000     3.060000000
H    -1.472000000    -4.530000000     1.947000000
O     2.170000000     3.577000000    -3.678000000
H     1.512000000     4.251000000    -3.846000000
H     1.679000000     2.853000000    -3.290000000
O     5.526000000    -3.844000000    -2.802000000
H     5.290000000    -3.242000000    -2.097000000
H     5.379000000    -3.344000000    -3.604000000
O    -2.152000000    -1.999000000     4.299000000
H    -1.562000000    -1.281000000     4.070000000
H    -1.871000000    -2.726000000     3.743000000
O    -4.843000000    -3.663000000    -1.212000000
H    -4.244000000    -3.085000000    -1.684000000
H    -4.301000000    -4.068000000    -0.534000000
O     5.006000000     1.002000000    -2.953000000
H     5.301000000     1.292000000    -3.816000000
H     5.123000000     1.767000000    -2.391000000
O     4.910000000    -3.410000000     3.720000000
H     5.368000000    -2.949000000     4.422000000
H     5.255000000    -3.024000000     2.915000000
O     4.856000000    -1.437000000    -1.791000000
H     4.868000000    -0.699000000    -2.400000000
H     4.480000000    -1.079000000    -0.987000000
O     6.353000000     0.577000000     0.724000000
H     6.265000000     1.528000000     0.792000000
H     5.464000000     0.265000000     0.559000000
O    -7.030000000    -4.449000000    -2.985000000
H    -6.390000000    -4.085000000    -2.373000000
H    -7.430000000    -3.682000000    -3.397000000
O    -5.811000000     2.147000000    -1.692000000
H    -5.255000000     1.403000000    -1.461000000
H    -6.463000000     2.184000000    -0.992000000
O    -0.630000000     1.221000000    -5.063000000
H    -0.146000000     1.236000000    -4.237000000
H    -0.046000000     1.646000000    -5.691000000
O    -4.499000000     2.604000000     0.921000000
H    -4.261000000     2.831000000     0.022000000
H    -4.572000000     3.447000000     1.369000000
O    -1.888000000    -7.207000000     1.259000000
H    -1.685000000    -8.040000000     0.835000000
H    -1.283000000    -6.581000000     0.860000000
O    -3.691000000    -4.982000000     1.101000000
H    -3.333000000    -5.863000000     1.211000000
H    -3.990000000    -4.735000000     1.976000000
O     3.505000000     3.417000000     2.458000000
H     2.959000000     4.162000000     2.206000000
H     3.297000000     2.740000000     1.813000000
O     2.293000000     5.609000000     1.546000000
H     2.641000000     6.468000000     1.787000000
H     1.715000000     5.786000000     0.803000000
