161
-3039.03328
C     1.367000000    -0.637000000     0.164000000
H     2.234000000    -1.266000000     0.350000000
C     0.287000000    -1.206000000    -0.493000000
H     0.255000000    -2.231000000    -0.856000000
C    -0.870000000    -0.453000000    -0.675000000
C    -2.084000000    -1.075000000    -1.331000000
H    -2.192000000    -0.769000000    -2.374000000
H    -2.111000000    -2.164000000    -1.254000000
H    -3.021000000    -0.759000000    -0.866000000
C    -0.989000000     0.832000000    -0.128000000
H    -1.958000000     1.317000000    -0.219000000
C     0.043000000     1.419000000     0.612000000
H    -0.040000000     2.442000000     0.970000000
C     1.212000000     0.656000000     0.733000000
C     2.355000000     1.190000000     1.521000000
O     2.167000000     2.180000000     2.181000000
O     3.346000000     0.529000000     1.661000000
O     3.766000000    -2.794000000    -3.278000000
H     3.967000000    -2.222000000    -4.018000000
H     2.819000000    -2.928000000    -3.329000000
O     5.361000000    -0.900000000     1.670000000
H     5.819000000    -0.665000000     2.477000000
H     4.607000000    -0.312000000     1.642000000
O     5.499000000     2.200000000     1.907000000
H     5.856000000     1.972000000     2.766000000
H     4.575000000     1.956000000     1.960000000
O    -4.431000000     0.437000000     2.010000000
H    -3.865000000     1.192000000     2.174000000
H    -3.826000000    -0.275000000     1.803000000
O    -0.593000000     2.525000000    -2.624000000
H    -1.403000000     3.033000000    -2.587000000
H    -0.680000000     1.883000000    -1.919000000
O    -0.094000000    -3.035000000     2.232000000
H     0.071000000    -3.010000000     1.290000000
H     0.773000000    -3.133000000     2.625000000
O    -6.216000000    -2.563000000     0.060000000
H    -6.396000000    -2.069000000     0.860000000
H    -6.863000000    -2.244000000    -0.569000000
O     1.760000000    -4.707000000    -0.440000000
H     2.542000000    -4.191000000    -0.245000000
H     1.916000000    -5.549000000    -0.013000000
O    -1.729000000     1.453000000    -6.240000000
H    -1.255000000     1.075000000    -6.980000000
H    -1.382000000     0.996000000    -5.474000000
O    -6.701000000    -0.928000000     2.020000000
H    -5.933000000    -0.359000000     1.972000000
H    -7.367000000    -0.476000000     1.503000000
O    -3.691000000     3.476000000     1.549000000
H    -3.064000000     4.135000000     1.252000000
H    -3.640000000     3.508000000     2.504000000
O    -3.045000000    -5.072000000    -4.281000000
H    -2.918000000    -5.964000000    -3.958000000
H    -2.275000000    -4.595000000    -3.975000000
O     2.777000000    -2.682000000     2.731000000
H     3.032000000    -2.038000000     3.392000000
H     3.023000000    -2.279000000     1.898000000
O    -7.379000000     0.380000000    -2.146000000
H    -6.794000000    -0.330000000    -2.410000000
H    -7.638000000     0.157000000    -1.252000000
O     4.052000000    -5.304000000     3.149000000
H     4.978000000    -5.157000000     2.955000000
H     3.601000000    -4.566000000     2.738000000
O    -2.968000000     3.834000000    -2.876000000
H    -3.575000000     4.287000000    -2.290000000
H    -3.361000000     2.971000000    -3.007000000
O    -1.488000000     5.155000000     0.946000000
H    -1.621000000     5.852000000     0.303000000
H    -0.544000000     4.999000000     0.939000000
O     0.215000000     0.301000000    -4.212000000
H    -0.257000000     0.820000000    -3.561000000
H     1.138000000     0.492000000    -4.046000000
O    -4.666000000     1.580000000    -3.189000000
H    -5.464000000     1.799000000    -2.709000000
H    -4.699000000     0.628000000    -3.289000000
O     0.502000000     2.964000000     4.074000000
H     0.896000000     2.463000000     4.788000000
H     0.877000000     2.584000000     3.279000000
O     1.779000000    -6.575000000    -2.516000000
H     1.948000000    -5.994000000    -3.259000000
H     1.661000000    -5.984000000    -1.773000000
O    -1.502000000     0.363000000     5.628000000
H    -1.539000000     0.101000000     4.708000000
H    -0.720000000    -0.071000000     5.969000000
O     8.612000000     1.565000000     1.455000000
H     8.704000000     1.144000000     2.309000000
H     7.672000000     1.723000000     1.366000000
O     1.571000000     4.364000000    -2.403000000
H     1.590000000     4.713000000    -3.294000000
H     1.147000000     3.510000000    -2.489000000
O    -0.456000000    -4.579000000    -2.410000000
H     0.143000000    -4.483000000    -1.669000000
H    -0.166000000    -3.918000000    -3.039000000
O     3.744000000    -0.266000000     4.263000000
H     3.280000000     0.104000000     3.512000000
H     4.273000000     0.458000000     4.598000000
O     0.347000000    -2.367000000    -3.694000000
H     0.391000000    -1.545000000    -3.205000000
H     0.753000000    -2.166000000    -4.537000000
O    -3.870000000    -1.892000000     3.986000000
H    -2.962000000    -2.190000000     3.936000000
H    -4.248000000    -2.131000000     3.139000000
O    -4.106000000     2.804000000    -5.859000000
H    -4.467000000     2.599000000    -4.996000000
H    -3.281000000     2.320000000    -5.895000000
O     4.876000000    -0.787000000    -1.746000000
H     4.603000000    -1.597000000    -2.175000000
H     5.030000000    -1.038000000    -0.835000000
O    -3.495000000    -3.036000000     1.540000000
H    -3.934000000    -3.077000000     0.691000000
H    -2.801000000    -3.692000000     1.483000000
O     3.864000000     4.887000000    -1.235000000
H     3.002000000     4.559000000    -1.491000000
H     4.428000000     4.113000000    -1.249000000
O    -1.727000000    -5.569000000     2.539000000
H    -1.273000000    -4.747000000     2.725000000
H    -1.711000000    -6.045000000     3.369000000
O     2.699000000     0.345000000    -3.146000000
H     3.070000000     1.184000000    -3.419000000
H     3.355000000    -0.026000000    -2.556000000
O     3.348000000     4.151000000     4.745000000
H     3.063000000     3.655000000     5.512000000
H     3.483000000     3.488000000     4.068000000
O     4.022000000    -3.278000000     0.215000000
H     4.712000000    -3.723000000    -0.277000000
H     4.481000000    -2.607000000     0.719000000
O     6.266000000     1.951000000     4.438000000
H     7.153000000     1.609000000     4.331000000
H     6.141000000     1.999000000     5.386000000
O    -0.744000000    -0.322000000     3.047000000
H    -0.402000000    -1.163000000     2.742000000
H    -0.601000000     0.275000000     2.313000000
O    -4.860000000    -3.546000000    -2.734000000
H    -4.722000000    -4.009000000    -1.907000000
H    -4.156000000    -3.857000000    -3.303000000
O     2.320000000     6.719000000     4.720000000
H     2.541000000     5.837000000     4.421000000
H     2.323000000     7.250000000     3.924000000
O    -4.913000000     4.127000000    -1.086000000
H    -5.848000000     4.321000000    -1.150000000
H    -4.832000000     3.596000000    -0.293000000
O    -1.463000000     4.907000000     3.984000000
H    -0.950000000     4.105000000     4.085000000
H    -1.655000000     4.953000000     3.047000000
O     4.147000000    -1.748000000     6.711000000
H     4.197000000    -1.328000000     5.852000000
H     3.379000000    -2.316000000     6.654000000
O     5.515000000     2.760000000    -1.056000000
H     5.628000000     2.598000000    -0.119000000
H     5.486000000     1.887000000    -1.448000000
O    -5.571000000    -1.009000000    -3.357000000
H    -5.778000000    -1.165000000    -4.278000000
H    -5.206000000    -1.838000000    -3.049000000
O    -4.642000000    -5.942000000    -0.717000000
H    -3.701000000    -5.919000000    -0.542000000
H    -5.004000000    -6.481000000    -0.015000000
O     1.462000000     4.433000000     1.162000000
H     2.272000000     4.929000000     1.043000000
H     1.733000000     3.636000000     1.616000000
O     2.029000000     1.866000000     6.094000000
H     1.604000000     1.035000000     6.304000000
H     2.881000000     1.816000000     6.528000000
