161
-3023.96256
C     1.305000000     0.221000000     0.803000000
H     2.132000000     0.519000000     1.442000000
C     0.145000000     1.059000000     0.857000000
H     0.187000000     1.941000000     1.490000000
C    -0.940000000     0.792000000     0.039000000
C    -2.280000000     1.548000000    -0.025000000
H    -3.105000000     0.876000000     0.220000000
H    -2.234000000     2.363000000     0.700000000
H    -2.361000000     1.946000000    -1.039000000
C    -0.947000000    -0.331000000    -0.821000000
H    -1.924000000    -0.607000000    -1.210000000
C     0.173000000    -1.117000000    -0.830000000
H     0.048000000    -2.041000000    -1.389000000
C     1.344000000    -0.855000000    -0.053000000
C     2.479000000    -1.845000000    -0.008000000
O     2.384000000    -2.993000000    -0.485000000
O     3.597000000    -1.475000000     0.312000000
O     0.138000000    -4.993000000    -1.864000000
H     0.014000000    -5.905000000    -1.601000000
H     0.959000000    -4.732000000    -1.446000000
O     2.965000000     3.466000000     2.839000000
H     3.384000000     3.115000000     2.053000000
H     2.214000000     2.891000000     2.988000000
O     5.361000000    -0.996000000     5.214000000
H     6.161000000    -1.472000000     5.434000000
H     5.192000000    -1.221000000     4.299000000
O    -5.519000000    -1.396000000     3.500000000
H    -4.777000000    -0.813000000     3.660000000
H    -6.082000000    -1.283000000     4.266000000
O    -5.623000000    -3.340000000    -3.478000000
H    -6.320000000    -3.144000000    -4.104000000
H    -5.000000000    -2.621000000    -3.580000000
O     3.576000000    -2.474000000    -2.886000000
H     3.272000000    -2.786000000    -2.034000000
H     3.433000000    -3.213000000    -3.477000000
O    -5.973000000     0.430000000     0.509000000
H    -6.437000000     0.719000000     1.294000000
H    -6.069000000    -0.523000000     0.512000000
O     7.675000000    -2.725000000     1.591000000
H     7.138000000    -2.829000000     0.806000000
H     7.538000000    -1.815000000     1.855000000
O     1.189000000    -6.605000000     2.878000000
H     1.934000000    -6.398000000     3.444000000
H     1.253000000    -5.976000000     2.159000000
O    -0.146000000    -3.919000000    -4.744000000
H     0.414000000    -3.154000000    -4.612000000
H    -0.177000000    -4.344000000    -3.887000000
O    -1.420000000     6.005000000     1.813000000
H    -0.856000000     6.405000000     2.476000000
H    -0.818000000     5.730000000     1.121000000
O    -4.076000000     2.629000000    -3.177000000
H    -3.603000000     3.401000000    -2.866000000
H    -4.648000000     2.962000000    -3.869000000
O    -3.519000000    -1.672000000    -3.324000000
H    -3.024000000    -1.353000000    -4.079000000
H    -4.031000000    -0.915000000    -3.037000000
O    -3.037000000     5.523000000    -3.301000000
H    -2.579000000     5.630000000    -4.135000000
H    -2.415000000     5.836000000    -2.645000000
O    -6.791000000     3.318000000     0.133000000
H    -7.667000000     3.691000000     0.226000000
H    -6.931000000     2.484000000    -0.315000000
O     5.901000000     4.346000000     0.455000000
H     5.147000000     3.815000000     0.198000000
H     5.950000000     5.031000000    -0.212000000
O     4.989000000     0.358000000    -1.028000000
H     5.908000000     0.237000000    -0.786000000
H     4.559000000    -0.449000000    -0.744000000
O     0.201000000     3.446000000     4.848000000
H     0.706000000     3.981000000     5.460000000
H     0.519000000     2.555000000     4.990000000
O     1.080000000     4.215000000    -2.827000000
H     1.005000000     3.351000000    -2.421000000
H     0.574000000     4.144000000    -3.636000000
O    -5.481000000     0.471000000    -2.429000000
H    -5.747000000     0.582000000    -1.516000000
H    -4.820000000     1.149000000    -2.570000000
O    -4.166000000     6.235000000     2.345000000
H    -3.342000000     6.212000000     1.859000000
H    -4.087000000     6.999000000     2.915000000
O     3.100000000     5.873000000     0.960000000
H     2.813000000     5.614000000     1.835000000
H     3.748000000     6.561000000     1.113000000
O     5.722000000     1.538000000     2.030000000
H     6.521000000     1.644000000     2.547000000
H     5.909000000     1.987000000     1.206000000
O    -5.144000000     5.449000000    -0.069000000
H    -5.575000000     4.595000000    -0.038000000
H    -4.797000000     5.575000000     0.814000000
O    -5.710000000     4.379000000     3.803000000
H    -5.127000000     3.620000000     3.786000000
H    -5.355000000     4.969000000     3.138000000
O     4.261000000    -3.837000000     3.622000000
H     5.086000000    -4.258000000     3.381000000
H     4.183000000    -3.099000000     3.019000000
O    -0.837000000     5.929000000    -1.663000000
H    -0.359000000     6.614000000    -1.195000000
H    -0.154000000     5.345000000    -1.994000000
O     7.352000000    -0.732000000    -2.702000000
H     7.803000000    -0.551000000    -1.877000000
H     6.879000000    -1.549000000    -2.541000000
O    -2.763000000    -3.587000000    -1.273000000
H    -2.795000000    -3.333000000    -2.195000000
H    -2.414000000    -4.478000000    -1.282000000
O     2.674000000    -5.295000000     0.596000000
H     3.420000000    -5.718000000     0.170000000
H     2.672000000    -4.404000000     0.247000000
O     4.033000000     1.639000000     4.759000000
H     4.860000000     1.254000000     4.468000000
H     3.836000000     2.308000000     4.104000000
O     1.164000000     1.722000000    -2.034000000
H     1.017000000     1.492000000    -2.951000000
H     0.445000000     1.300000000    -1.563000000
O    -3.620000000    -5.771000000     0.293000000
H    -3.406000000    -4.841000000     0.226000000
H    -3.990000000    -5.994000000    -0.561000000
O     3.049000000    -4.325000000    -4.723000000
H     2.952000000    -5.276000000    -4.780000000
H     3.280000000    -4.054000000    -5.611000000
O    -3.737000000    -2.546000000     0.910000000
H    -3.474000000    -2.763000000     0.015000000
H    -2.919000000    -2.317000000     1.351000000
O    -6.477000000    -2.225000000     0.906000000
H    -5.606000000    -2.580000000     0.725000000
H    -6.444000000    -1.968000000     1.827000000
O     5.652000000    -3.164000000    -0.403000000
H     5.041000000    -2.470000000    -0.153000000
H     5.115000000    -3.955000000    -0.437000000
O     3.427000000    -0.025000000    -4.639000000
H     2.489000000    -0.146000000    -4.490000000
H     3.832000000    -0.801000000    -4.252000000
O     4.377000000    -5.326000000    -1.625000000
H     4.968000000    -5.993000000    -1.974000000
H     3.788000000    -5.124000000    -2.351000000
O    -2.536000000     3.645000000     3.677000000
H    -1.608000000     3.724000000     3.896000000
H    -2.680000000     4.308000000     3.001000000
O     0.529000000     1.667000000    -4.715000000
H     0.082000000     2.493000000    -4.897000000
H     0.195000000     1.062000000    -5.377000000
O    -2.388000000     0.551000000     3.264000000
H    -2.656000000     1.351000000     3.718000000
H    -2.284000000     0.818000000     2.351000000
O     7.477000000    -3.818000000    -2.096000000
H     6.794000000    -3.526000000    -1.492000000
H     7.933000000    -4.515000000    -1.624000000
O     3.681000000     2.752000000    -0.437000000
H     4.110000000     1.970000000    -0.785000000
H     2.936000000     2.895000000    -1.021000000
O     1.258000000    -3.517000000     2.449000000
H     1.733000000    -4.052000000     1.814000000
H     1.849000000    -3.453000000     3.200000000
O    -1.097000000    -2.141000000     1.766000000
H    -0.666000000    -2.865000000     2.219000000
H    -0.392000000    -1.700000000     1.292000000
O     4.850000000    -1.147000000     2.510000000
H     4.953000000    -0.199000000     2.426000000
H     4.437000000    -1.417000000     1.690000000
O     0.416000000     0.760000000     5.164000000
H     0.147000000     0.254000000     4.398000000
H     0.542000000     0.106000000     5.852000000
