161
-3007.90193
C     0.832000000    -0.237000000    -1.214000000
H     1.328000000    -0.323000000    -2.177000000
C    -0.211000000     0.656000000    -1.072000000
H    -0.411000000     1.281000000    -1.939000000
C    -0.982000000     0.772000000     0.058000000
C    -2.109000000     1.680000000     0.170000000
H    -2.291000000     2.140000000     1.143000000
H    -1.918000000     2.529000000    -0.489000000
H    -2.937000000     1.103000000    -0.247000000
C    -0.605000000     0.056000000     1.211000000
H    -1.164000000     0.289000000     2.114000000
C     0.515000000    -0.806000000     1.161000000
H     0.864000000    -1.228000000     2.100000000
C     1.236000000    -0.965000000    -0.036000000
C     2.372000000    -1.998000000    -0.199000000
O     2.444000000    -2.857000000     0.614000000
O     3.034000000    -2.092000000    -1.202000000
O    -6.280000000     2.264000000     4.813000000
H    -5.733000000     2.824000000     5.364000000
H    -5.690000000     1.950000000     4.129000000
O     4.448000000     1.022000000     2.196000000
H     4.669000000     0.919000000     1.270000000
H     4.631000000     1.942000000     2.386000000
O    -0.734000000    -2.506000000     3.832000000
H    -1.328000000    -3.047000000     4.353000000
H    -0.446000000    -3.081000000     3.123000000
O     4.863000000    -3.962000000    -1.826000000
H     4.215000000    -3.294000000    -1.604000000
H     5.595000000    -3.472000000    -2.199000000
O     5.296000000    -0.104000000    -4.754000000
H     4.510000000    -0.461000000    -5.166000000
H     5.712000000    -0.858000000    -4.336000000
O     0.281000000    -0.415000000     5.044000000
H     0.172000000    -1.236000000     4.563000000
H     0.753000000     0.156000000     4.438000000
O    -4.602000000     1.301000000     3.011000000
H    -4.316000000     0.440000000     2.704000000
H    -4.176000000     1.920000000     2.420000000
O     2.278000000     1.098000000     6.356000000
H     2.689000000     0.340000000     6.771000000
H     1.556000000     0.730000000     5.846000000
O    -4.544000000     4.628000000     1.404000000
H    -4.565000000     4.266000000     0.518000000
H    -4.935000000     5.498000000     1.316000000
O    -4.361000000     4.062000000    -1.671000000
H    -4.048000000     4.931000000    -1.421000000
H    -4.028000000     3.933000000    -2.559000000
O    -5.960000000    -1.094000000    -3.958000000
H    -5.907000000    -0.391000000    -4.606000000
H    -5.381000000    -0.811000000    -3.251000000
O     4.015000000    -2.455000000    -5.663000000
H     3.213000000    -2.435000000    -6.185000000
H     4.406000000    -3.308000000    -5.857000000
O     3.546000000    -5.960000000    -2.909000000
H     4.033000000    -5.149000000    -2.765000000
H     3.748000000    -6.500000000    -2.145000000
O     0.703000000     3.218000000     4.684000000
H     1.384000000     2.591000000     4.437000000
H     0.540000000     3.720000000     3.885000000
O     0.483000000    -2.014000000     7.202000000
H     0.391000000    -1.491000000     6.405000000
H    -0.066000000    -2.783000000     7.049000000
O    -5.759000000    -1.300000000    -0.936000000
H    -4.864000000    -1.629000000    -1.017000000
H    -5.655000000    -0.362000000    -0.771000000
O     1.696000000    -3.325000000    -3.104000000
H     2.327000000    -3.765000000    -3.674000000
H     2.235000000    -2.873000000    -2.454000000
O     4.395000000     1.283000000    -0.473000000
H     3.576000000     1.777000000    -0.469000000
H     4.935000000     1.719000000    -1.133000000
O    -5.521000000     1.525000000    -1.085000000
H    -5.859000000     1.625000000    -1.975000000
H    -4.835000000     2.188000000    -1.014000000
O     7.867000000    -2.528000000     0.284000000
H     7.001000000    -2.299000000    -0.054000000
H     8.394000000    -2.690000000    -0.498000000
O     5.702000000    -1.141000000    -0.575000000
H     4.875000000    -1.616000000    -0.664000000
H     5.445000000    -0.221000000    -0.521000000
O     2.186000000     2.859000000    -0.629000000
H     1.393000000     2.482000000    -1.010000000
H     1.897000000     3.230000000     0.205000000
O    -1.769000000    -2.768000000    -0.194000000
H    -1.146000000    -2.047000000    -0.104000000
H    -1.332000000    -3.515000000     0.215000000
O     0.521000000    -4.319000000     2.425000000
H     0.994000000    -4.368000000     1.594000000
H     0.304000000    -5.228000000     2.631000000
O    -3.496000000    -2.238000000    -2.286000000
H    -3.723000000    -3.158000000    -2.424000000
H    -2.833000000    -2.256000000    -1.596000000
O    -1.899000000     0.852000000     6.199000000
H    -2.661000000     0.273000000     6.221000000
H    -1.349000000     0.497000000     5.500000000
O     2.766000000    -2.824000000     3.614000000
H     1.861000000    -3.125000000     3.697000000
H     2.807000000    -2.425000000     2.745000000
O     4.673000000    -4.007000000     1.492000000
H     3.846000000    -3.597000000     1.238000000
H     4.464000000    -4.937000000     1.577000000
O     0.076000000    -2.046000000    -4.914000000
H     0.493000000    -2.604000000    -4.259000000
H     0.395000000    -2.381000000    -5.752000000
O     6.595000000    -2.510000000    -3.786000000
H     5.881000000    -2.943000000    -4.255000000
H     7.144000000    -3.228000000    -3.472000000
O     0.680000000     0.533000000    -4.929000000
H     1.267000000     0.369000000    -5.668000000
H     0.340000000    -0.331000000    -4.698000000
O     7.234000000    -4.491000000     2.030000000
H     7.641000000    -3.968000000     1.339000000
H     6.299000000    -4.301000000     1.954000000
O     1.648000000     1.082000000     3.389000000
H     2.553000000     0.771000000     3.405000000
H     1.554000000     1.500000000     2.532000000
O    -0.978000000    -4.850000000    -2.786000000
H    -0.653000000    -4.468000000    -1.971000000
H    -0.366000000    -5.560000000    -2.978000000
O    -0.221000000     3.691000000    -5.764000000
H    -0.284000000     2.771000000    -5.510000000
H     0.013000000     3.668000000    -6.692000000
O     2.969000000    -7.883000000     0.930000000
H     3.711000000    -7.414000000     0.546000000
H     2.198000000    -7.415000000     0.608000000
O     1.805000000    -5.330000000    -0.101000000
H     1.551000000    -5.074000000    -0.988000000
H     2.318000000    -4.590000000     0.224000000
O    -6.912000000     1.163000000     1.312000000
H    -6.964000000     1.270000000     0.362000000
H    -5.975000000     1.178000000     1.504000000
O    -4.083000000    -1.417000000     2.557000000
H    -3.541000000    -1.854000000     3.213000000
H    -4.123000000    -2.035000000     1.828000000
O    -5.184000000     5.095000000     4.109000000
H    -5.158000000     5.220000000     3.160000000
H    -4.537000000     4.410000000     4.278000000
O     5.650000000    -1.508000000     3.323000000
H     5.580000000    -0.670000000     2.865000000
H     5.260000000    -2.143000000     2.722000000
O     4.905000000    -6.771000000    -0.604000000
H     5.094000000    -5.856000000    -0.811000000
H     5.746000000    -7.217000000    -0.700000000
O    -2.892000000     6.603000000    -1.882000000
H    -2.646000000     7.219000000    -1.191000000
H    -2.059000000     6.254000000    -2.199000000
O    -1.700000000     4.722000000     2.257000000
H    -1.814000000     5.375000000     2.947000000
H    -2.565000000     4.322000000     2.161000000
O     2.417000000     2.745000000    -4.528000000
H     1.838000000     1.983000000    -4.486000000
H     2.369000000     3.032000000    -5.440000000
O    -2.948000000    -0.657000000    -4.810000000
H    -2.087000000    -0.932000000    -5.123000000
H    -3.025000000    -1.051000000    -3.941000000
O     0.716000000     4.482000000     1.203000000
H     1.207000000     4.916000000     1.901000000
H    -0.195000000     4.518000000     1.493000000
O     0.055000000     5.883000000    -1.296000000
H     0.772000000     5.436000000    -1.747000000
H     0.056000000     5.507000000    -0.416000000
