161
-3035.23769
C     0.004000000    -0.034000000    -1.482000000
H    -0.221000000    -0.083000000    -2.544000000
C    -0.819000000    -0.745000000    -0.661000000
H    -1.588000000    -1.389000000    -1.079000000
C    -0.700000000    -0.714000000     0.761000000
C    -1.661000000    -1.432000000     1.652000000
H    -2.626000000    -0.922000000     1.641000000
H    -1.797000000    -2.457000000     1.302000000
H    -1.375000000    -1.481000000     2.705000000
C     0.253000000     0.094000000     1.253000000
H     0.492000000     0.130000000     2.313000000
C     1.098000000     0.901000000     0.420000000
H     1.676000000     1.651000000     0.953000000
C     0.950000000     0.847000000    -0.964000000
C     1.851000000     1.602000000    -1.870000000
O     2.956000000     2.018000000    -1.444000000
O     1.511000000     2.013000000    -2.954000000
O     2.879000000     0.664000000     4.557000000
H     3.473000000     0.808000000     3.820000000
H     3.453000000     0.616000000     5.321000000
O    -3.856000000     3.106000000    -1.952000000
H    -3.019000000     2.762000000    -1.640000000
H    -3.616000000     3.824000000    -2.539000000
O     0.106000000     2.763000000     6.503000000
H    -0.829000000     2.962000000     6.458000000
H     0.308000000     2.364000000     5.657000000
O     0.557000000    -3.195000000     4.457000000
H     0.657000000    -3.753000000     3.685000000
H     0.316000000    -2.339000000     4.104000000
O     2.532000000     4.133000000    -4.326000000
H     2.371000000     4.664000000    -3.546000000
H     2.215000000     3.261000000    -4.092000000
O    -2.568000000     2.378000000    -4.987000000
H    -2.647000000     3.235000000    -5.407000000
H    -2.927000000     1.764000000    -5.627000000
O    -5.142000000    -2.378000000    -4.347000000
H    -5.891000000    -2.121000000    -3.809000000
H    -4.587000000    -2.889000000    -3.757000000
O    -7.539000000     0.372000000     2.385000000
H    -6.700000000    -0.084000000     2.325000000
H    -7.356000000     1.138000000     2.931000000
O     0.911000000     2.399000000     3.618000000
H     1.556000000     1.897000000     4.117000000
H     1.435000000     2.984000000     3.071000000
O    -1.206000000     2.699000000     1.101000000
H    -0.844000000     1.935000000     0.654000000
H    -1.250000000     2.439000000     2.022000000
O    -3.454000000    -3.716000000    -2.762000000
H    -3.445000000    -4.673000000    -2.745000000
H    -2.531000000    -3.468000000    -2.813000000
O     4.488000000     1.433000000    -3.451000000
H     3.954000000     1.800000000    -2.747000000
H     5.028000000     0.770000000    -3.021000000
O     1.194000000     6.484000000    -2.896000000
H     1.628000000     6.063000000    -2.155000000
H     0.361000000     6.795000000    -2.542000000
O    -2.890000000    -0.141000000    -4.200000000
H    -2.448000000     0.708000000    -4.178000000
H    -3.747000000     0.025000000    -3.808000000
O    -4.958000000     0.032000000     2.187000000
H    -4.379000000    -0.522000000     2.712000000
H    -4.708000000     0.926000000     2.419000000
O    -1.341000000    -4.617000000     6.403000000
H    -1.889000000    -5.399000000     6.342000000
H    -1.339000000    -4.256000000     5.517000000
O    -0.634000000     3.577000000    -1.965000000
H    -0.534000000     4.473000000    -2.286000000
H     0.137000000     3.117000000    -2.297000000
O     0.186000000    -0.351000000     4.848000000
H     1.103000000    -0.078000000     4.819000000
H     0.091000000    -0.781000000     5.698000000
O     3.047000000    -0.009000000    -5.241000000
H     3.639000000    -0.198000000    -5.969000000
H     3.485000000     0.687000000    -4.751000000
O     4.415000000     5.476000000     1.203000000
H     4.679000000     5.157000000     0.340000000
H     4.931000000     4.956000000     1.819000000
O     4.291000000     0.745000000     2.284000000
H     5.097000000     0.487000000     2.731000000
H     4.408000000     0.440000000     1.384000000
O     0.623000000    -3.531000000    -1.370000000
H     1.534000000    -3.706000000    -1.608000000
H     0.607000000    -2.599000000    -1.155000000
O     1.667000000     5.375000000     1.774000000
H     1.803000000     6.313000000     1.904000000
H     2.549000000     5.003000000     1.767000000
O     5.227000000     3.284000000    -0.319000000
H     4.429000000     2.830000000    -0.590000000
H     5.858000000     2.583000000    -0.154000000
O    -6.563000000    -2.149000000     4.270000000
H    -5.773000000    -1.609000000     4.286000000
H    -6.325000000    -2.904000000     3.731000000
O     4.160000000    -0.092000000    -0.306000000
H     3.582000000     0.559000000    -0.704000000
H     4.714000000    -0.393000000    -1.026000000
O    -1.657000000     1.733000000     3.676000000
H    -0.721000000     1.916000000     3.759000000
H    -1.856000000     1.161000000     4.417000000
O     2.800000000    -3.710000000    -3.117000000
H     2.383000000    -3.319000000    -3.885000000
H     3.527000000    -4.220000000    -3.473000000
O    -1.405000000     0.704000000    -7.261000000
H    -0.845000000     0.679000000    -8.037000000
H    -0.794000000     0.742000000    -6.526000000
O     0.696000000     1.253000000    -5.245000000
H     0.797000000     1.601000000    -4.359000000
H     1.481000000     0.723000000    -5.384000000
O     2.677000000    -4.736000000     2.105000000
H     2.810000000    -5.476000000     1.513000000
H     1.726000000    -4.654000000     2.176000000
O    -4.203000000    -1.153000000     4.437000000
H    -3.929000000    -0.365000000     4.907000000
H    -3.477000000    -1.766000000     4.554000000
O    -2.113000000    -4.998000000     1.027000000
H    -2.095000000    -5.637000000     0.314000000
H    -3.019000000    -4.690000000     1.050000000
O    -5.576000000    -3.921000000     2.572000000
H    -6.252000000    -4.584000000     2.433000000
H    -5.235000000    -3.740000000     1.696000000
O     1.914000000    -2.793000000    -5.414000000
H     2.301000000    -1.930000000    -5.269000000
H     1.721000000    -2.814000000    -6.352000000
O    -2.652000000     0.599000000     6.094000000
H    -2.252000000    -0.146000000     6.543000000
H    -3.110000000     1.077000000     6.785000000
O    -3.869000000     2.788000000     2.270000000
H    -3.171000000     2.837000000     1.617000000
H    -3.431000000     2.489000000     3.067000000
O    -4.631000000    -3.885000000    -0.088000000
H    -5.500000000    -3.960000000    -0.483000000
H    -4.045000000    -3.731000000    -0.829000000
O    -5.069000000     0.836000000    -2.351000000
H    -4.708000000     1.615000000    -1.928000000
H    -5.023000000     0.156000000    -1.679000000
O     0.666000000     3.505000000    -7.501000000
H     0.138000000     2.863000000    -7.027000000
H     0.707000000     4.261000000    -6.916000000
O     2.272000000     4.771000000    -1.170000000
H     2.236000000     3.889000000    -1.539000000
H     2.273000000     4.635000000    -0.222000000
O     5.506000000     2.143000000    -6.105000000
H     5.126000000     2.047000000    -5.232000000
H     5.926000000     1.300000000    -6.278000000
O     0.160000000    -3.920000000     1.716000000
H     0.227000000    -3.494000000     0.861000000
H    -0.624000000    -4.464000000     1.652000000
O     5.564000000     4.443000000    -2.842000000
H     4.893000000     3.933000000    -3.296000000
H     5.468000000     4.200000000    -1.922000000
O    -5.507000000    -1.060000000    -0.426000000
H    -5.276000000    -0.752000000     0.450000000
H    -6.216000000    -1.687000000    -0.281000000
O     6.110000000    -0.672000000    -2.536000000
H     6.806000000    -0.117000000    -2.184000000
H     6.211000000    -1.504000000    -2.073000000
O    -1.607000000    -1.852000000    -6.177000000
H    -1.664000000    -1.425000000    -5.322000000
H    -1.671000000    -1.135000000    -6.807000000
O     0.244000000    -6.037000000    -2.241000000
H     0.292000000    -5.176000000    -1.827000000
H     0.445000000    -5.872000000    -3.162000000
