161
-3036.38659
C    -0.358000000     1.374000000    -0.476000000
H    -0.757000000     2.332000000    -0.800000000
C    -1.227000000     0.336000000    -0.110000000
H    -2.291000000     0.545000000    -0.186000000
C    -0.812000000    -0.903000000     0.318000000
C    -1.736000000    -2.016000000     0.600000000
H    -1.628000000    -2.643000000    -0.287000000
H    -1.521000000    -2.657000000     1.457000000
H    -2.802000000    -1.781000000     0.549000000
C     0.558000000    -1.097000000     0.377000000
H     0.963000000    -2.072000000     0.637000000
C     1.453000000    -0.094000000     0.070000000
H     2.512000000    -0.337000000     0.112000000
C     1.010000000     1.184000000    -0.306000000
C     1.923000000     2.321000000    -0.544000000
O     3.126000000     2.144000000    -0.313000000
O     1.585000000     3.361000000    -1.096000000
O     2.489000000     1.094000000    -3.861000000
H     2.822000000     0.794000000    -3.015000000
H     2.771000000     2.007000000    -3.920000000
O    -4.262000000     2.751000000     3.345000000
H    -5.106000000     2.638000000     3.784000000
H    -4.302000000     2.159000000     2.594000000
O     3.638000000     4.368000000     3.219000000
H     4.114000000     4.938000000     2.615000000
H     3.878000000     3.481000000     2.949000000
O    -1.683000000     0.439000000    -3.707000000
H    -1.033000000     0.257000000    -4.386000000
H    -1.189000000     0.405000000    -2.887000000
O    -7.317000000     1.798000000    -0.370000000
H    -7.856000000     1.015000000    -0.259000000
H    -6.518000000     1.481000000    -0.792000000
O    -5.616000000    -2.658000000     3.234000000
H    -4.859000000    -2.884000000     3.773000000
H    -5.299000000    -2.728000000     2.334000000
O    -1.478000000    -2.610000000     4.185000000
H    -0.739000000    -2.033000000     3.997000000
H    -1.298000000    -3.403000000     3.680000000
O    -1.720000000    -5.143000000     5.810000000
H    -1.225000000    -5.546000000     5.097000000
H    -2.612000000    -5.472000000     5.697000000
O     0.511000000    -0.748000000     3.897000000
H     1.384000000    -0.975000000     3.576000000
H     0.348000000     0.128000000     3.549000000
O     5.214000000     3.411000000     0.501000000
H     4.444000000     3.117000000     0.015000000
H     5.460000000     4.237000000     0.084000000
O     4.632000000     1.082000000    -2.042000000
H     5.004000000     0.255000000    -1.737000000
H     4.059000000     1.365000000    -1.329000000
O    -0.609000000    -5.434000000     2.838000000
H    -1.391000000    -5.247000000     2.319000000
H    -0.228000000    -6.209000000     2.426000000
O     0.465000000    -1.211000000    -4.765000000
H     0.734000000    -1.948000000    -4.217000000
H     1.161000000    -0.563000000    -4.655000000
O     3.105000000    -1.511000000     2.984000000
H     3.829000000    -1.656000000     2.375000000
H     3.073000000    -2.309000000     3.512000000
O     6.914000000     1.271000000     0.059000000
H     6.472000000     2.075000000     0.333000000
H     6.483000000     1.029000000    -0.760000000
O    -2.934000000    -5.136000000     1.315000000
H    -2.844000000    -4.762000000     0.438000000
H    -3.845000000    -4.967000000     1.555000000
O     4.926000000     7.713000000    -1.048000000
H     5.800000000     7.587000000    -0.679000000
H     4.410000000     6.987000000    -0.696000000
O    -2.387000000    -8.049000000     1.395000000
H    -2.628000000    -7.177000000     1.083000000
H    -1.939000000    -8.453000000     0.652000000
O    -3.418000000    -0.055000000     3.932000000
H    -2.712000000    -0.692000000     3.824000000
H    -3.213000000     0.392000000     4.753000000
O    -1.573000000     7.685000000    -0.488000000
H    -2.521000000     7.724000000    -0.615000000
H    -1.355000000     6.758000000    -0.587000000
O    -4.319000000    -3.608000000     5.376000000
H    -3.368000000    -3.504000000     5.398000000
H    -4.458000000    -4.553000000     5.440000000
O     0.528000000    -5.306000000    -0.222000000
H     0.287000000    -6.032000000    -0.797000000
H     0.238000000    -4.523000000    -0.690000000
O     1.312000000    -3.200000000    -3.223000000
H     0.618000000    -3.859000000    -3.254000000
H     1.925000000    -3.530000000    -2.567000000
O    -3.640000000    -3.805000000    -2.068000000
H    -3.966000000    -3.878000000    -2.965000000
H    -3.862000000    -2.913000000    -1.804000000
O     4.831000000    -1.574000000    -1.243000000
H     5.389000000    -1.735000000    -2.005000000
H     4.138000000    -2.231000000    -1.311000000
O     0.704000000     6.021000000    -4.841000000
H     0.920000000     6.953000000    -4.808000000
H    -0.085000000     5.977000000    -5.380000000
O     4.734000000     4.488000000    -3.056000000
H     3.935000000     4.518000000    -3.583000000
H     4.443000000     4.697000000    -2.169000000
O    -1.810000000     3.718000000     1.392000000
H    -2.166000000     4.366000000     2.000000000
H    -2.578000000     3.360000000     0.946000000
O     3.970000000    -4.142000000    -1.632000000
H     3.993000000    -4.748000000    -2.372000000
H     4.867000000    -4.138000000    -1.298000000
O     7.428000000     4.829000000    -1.807000000
H     6.613000000     4.582000000    -2.244000000
H     7.148000000     5.343000000    -1.050000000
O    -1.018000000    -4.833000000    -2.571000000
H    -1.200000000    -5.583000000    -3.136000000
H    -1.879000000    -4.458000000    -2.385000000
O    -0.406000000     1.580000000     2.709000000
H    -0.250000000     1.029000000     1.942000000
H    -0.892000000     2.331000000     2.369000000
O    -3.796000000     2.991000000    -0.312000000
H    -4.316000000     2.226000000    -0.560000000
H    -4.222000000     3.724000000    -0.756000000
O    -4.854000000    -1.164000000    -0.908000000
H    -5.073000000    -1.075000000     0.020000000
H    -5.623000000    -1.581000000    -1.297000000
O    -7.023000000    -2.637000000    -1.227000000
H    -7.171000000    -2.785000000    -2.161000000
H    -7.901000000    -2.573000000    -0.852000000
O    -0.661000000     5.014000000    -0.639000000
H     0.113000000     4.464000000    -0.767000000
H    -1.114000000     4.620000000     0.107000000
O    -2.452000000     5.426000000    -2.635000000
H    -3.326000000     5.245000000    -2.290000000
H    -1.860000000     5.195000000    -1.920000000
O     3.289000000    -6.859000000    -0.359000000
H     3.232000000    -6.885000000     0.597000000
H     3.385000000    -5.930000000    -0.568000000
O     6.188000000     1.704000000    -4.145000000
H     5.471000000     1.635000000    -3.516000000
H     6.925000000     2.039000000    -3.634000000
O     3.289000000     5.421000000    -0.170000000
H     2.773000000     4.754000000    -0.621000000
H     2.710000000     5.746000000     0.520000000
O     3.687000000     1.755000000     2.546000000
H     3.794000000     1.973000000     1.621000000
H     3.260000000     0.898000000     2.543000000
O     2.531000000    -5.647000000     2.200000000
H     1.919000000    -5.182000000     1.629000000
H     2.450000000    -5.207000000     3.046000000
O     6.008000000     0.558000000     4.330000000
H     5.514000000     0.182000000     3.602000000
H     6.128000000     1.477000000     4.090000000
O    -5.635000000    -4.197000000     0.696000000
H    -5.881000000    -3.497000000     0.092000000
H    -6.460000000    -4.636000000     0.903000000
O    -5.474000000    -0.283000000     1.659000000
H    -6.313000000     0.005000000     2.020000000
H    -4.834000000    -0.066000000     2.338000000
O     5.097000000    -1.795000000     1.287000000
H     5.969000000    -2.085000000     1.556000000
H     5.200000000    -1.548000000     0.368000000
O     1.979000000     3.779000000    -4.214000000
H     1.488000000     4.559000000    -4.473000000
H     1.778000000     3.668000000    -3.285000000
O    -4.740000000     1.008000000    -2.326000000
H    -3.910000000     1.095000000    -2.795000000
H    -4.753000000     0.099000000    -2.028000000
