161
-3037.59778
C    -0.011000000     1.439000000     0.420000000
H     0.023000000     2.452000000     0.813000000
C    -1.109000000     0.629000000     0.555000000
H    -1.980000000     0.929000000     1.132000000
C    -0.988000000    -0.641000000     0.095000000
C    -1.996000000    -1.720000000     0.369000000
H    -2.615000000    -1.373000000     1.200000000
H    -2.519000000    -1.886000000    -0.575000000
H    -1.616000000    -2.677000000     0.730000000
C     0.118000000    -1.105000000    -0.552000000
H     0.152000000    -2.113000000    -0.960000000
C     1.240000000    -0.338000000    -0.695000000
H     2.090000000    -0.720000000    -1.254000000
C     1.185000000     0.964000000    -0.166000000
C     2.336000000     1.848000000    -0.390000000
O     3.413000000     1.273000000    -0.647000000
O     2.269000000     3.035000000    -0.072000000
O     0.641000000    -3.992000000     5.560000000
H     1.588000000    -3.935000000     5.683000000
H     0.512000000    -3.857000000     4.621000000
O    -0.508000000     6.916000000     2.469000000
H    -1.431000000     6.679000000     2.384000000
H    -0.038000000     6.225000000     2.003000000
O     5.280000000    -2.566000000    -3.657000000
H     4.751000000    -1.792000000    -3.851000000
H     5.781000000    -2.722000000    -4.457000000
O     2.960000000     2.195000000     3.740000000
H     3.226000000     3.047000000     3.395000000
H     2.051000000     2.320000000     4.011000000
O    -0.233000000    -1.070000000    -3.574000000
H    -0.703000000    -1.864000000    -3.317000000
H    -0.419000000    -0.445000000    -2.873000000
O     3.635000000     5.671000000    -3.905000000
H     3.162000000     6.454000000    -3.623000000
H     3.870000000     5.226000000    -3.091000000
O    -4.114000000     0.238000000    -2.234000000
H    -4.116000000     0.342000000    -1.283000000
H    -3.243000000     0.526000000    -2.505000000
O     0.250000000     2.447000000     4.699000000
H    -0.538000000     2.334000000     4.166000000
H     0.222000000     1.724000000     5.325000000
O    -1.110000000    -3.719000000    -3.223000000
H    -1.738000000    -4.342000000    -2.857000000
H    -0.297000000    -3.891000000    -2.748000000
O    -5.390000000    -3.308000000     3.289000000
H    -4.948000000    -2.554000000     2.901000000
H    -5.258000000    -3.204000000     4.232000000
O    -2.263000000    -5.699000000     4.889000000
H    -2.589000000    -4.833000000     4.647000000
H    -1.407000000    -5.532000000     5.283000000
O    -2.675000000    -2.892000000     4.273000000
H    -2.093000000    -2.991000000     3.519000000
H    -2.679000000    -1.951000000     4.450000000
O     5.925000000     2.009000000    -0.461000000
H     5.037000000     1.881000000    -0.796000000
H     5.813000000     2.099000000     0.486000000
O     3.950000000     0.193000000    -3.072000000
H     3.831000000     0.507000000    -2.176000000
H     3.073000000     0.225000000    -3.455000000
O     2.717000000    -4.502000000    -4.315000000
H     2.684000000    -3.573000000    -4.542000000
H     3.452000000    -4.848000000    -4.821000000
O    -0.593000000    -7.108000000     2.545000000
H    -1.270000000    -6.530000000     2.899000000
H    -0.782000000    -7.963000000     2.931000000
O    -1.747000000    -0.248000000    -5.652000000
H    -2.097000000    -1.138000000    -5.673000000
H    -1.058000000    -0.277000000    -4.988000000
O     0.964000000    -4.792000000    -2.058000000
H     1.521000000    -5.484000000    -1.701000000
H     1.395000000    -4.533000000    -2.872000000
O    -0.213000000    -3.394000000     2.939000000
H     0.274000000    -2.571000000     2.897000000
H     0.131000000    -3.914000000     2.213000000
O    -7.446000000    -3.735000000     0.339000000
H    -7.555000000    -4.593000000     0.748000000
H    -6.532000000    -3.719000000     0.056000000
O     4.276000000     4.404000000    -1.718000000
H     4.992000000     3.788000000    -1.563000000
H     3.540000000     4.046000000    -1.222000000
O    -2.587000000     5.254000000    -1.120000000
H    -2.903000000     5.248000000    -2.024000000
H    -3.352000000     5.013000000    -0.598000000
O    -4.816000000    -4.857000000    -0.228000000
H    -4.061000000    -5.012000000     0.339000000
H    -4.929000000    -5.678000000    -0.707000000
O     1.471000000    -4.599000000     1.049000000
H     2.078000000    -5.056000000     1.632000000
H     1.988000000    -4.411000000     0.266000000
O     1.171000000    -0.974000000     5.177000000
H     0.595000000    -0.397000000     5.680000000
H     0.666000000    -1.191000000     4.394000000
O     3.667000000     4.693000000     3.157000000
H     4.050000000     5.551000000     2.974000000
H     4.036000000     4.442000000     4.004000000
O    -2.754000000    -5.809000000    -2.709000000
H    -3.137000000    -6.467000000    -3.289000000
H    -2.462000000    -6.305000000    -1.944000000
O     3.915000000    -3.981000000    -1.526000000
H     4.479000000    -3.710000000    -2.251000000
H     3.554000000    -4.823000000    -1.806000000
O    -5.133000000    -0.170000000     0.659000000
H    -6.087000000    -0.098000000     0.621000000
H    -4.838000000     0.702000000     0.923000000
O    -5.022000000    -4.375000000    -3.441000000
H    -4.272000000    -4.731000000    -2.965000000
H    -5.307000000    -3.628000000    -2.915000000
O     7.788000000     2.897000000    -2.252000000
H     7.621000000     2.219000000    -2.907000000
H     7.263000000     2.634000000    -1.496000000
O    -3.247000000    -0.110000000     4.284000000
H    -4.146000000     0.148000000     4.081000000
H    -2.733000000     0.686000000     4.149000000
O     7.532000000    -1.147000000    -0.381000000
H     6.589000000    -0.986000000    -0.379000000
H     7.680000000    -1.710000000     0.379000000
O     1.186000000    -1.387000000     2.154000000
H     1.086000000    -1.063000000     1.259000000
H     2.107000000    -1.637000000     2.216000000
O    -5.542000000    -2.219000000    -1.851000000
H    -4.936000000    -1.622000000    -2.289000000
H    -5.364000000    -2.100000000    -0.918000000
O    -1.632000000    -5.835000000     0.115000000
H    -0.762000000    -5.528000000    -0.143000000
H    -1.486000000    -6.301000000     0.938000000
O     1.203000000     5.259000000     1.258000000
H     1.407000000     4.386000000     0.920000000
H     1.755000000     5.349000000     2.035000000
O     0.065000000     2.768000000    -4.637000000
H     0.959000000     2.965000000    -4.919000000
H     0.048000000     3.006000000    -3.710000000
O     6.327000000     0.982000000    -3.919000000
H     5.390000000     0.885000000    -3.749000000
H     6.383000000     1.148000000    -4.861000000
O    -0.213000000     3.495000000    -1.621000000
H    -1.042000000     3.880000000    -1.338000000
H     0.325000000     3.475000000    -0.830000000
O     4.663000000     0.883000000     1.742000000
H     4.018000000     1.486000000     2.113000000
H     4.335000000     0.692000000     0.863000000
O     7.124000000     0.682000000     2.383000000
H     7.595000000     0.307000000     1.639000000
H     6.228000000     0.797000000     2.066000000
O     3.847000000    -1.857000000     2.709000000
H     3.682000000    -2.090000000     3.622000000
H     4.186000000    -0.962000000     2.748000000
O    -2.943000000     2.412000000     3.230000000
H    -3.836000000     2.070000000     3.182000000
H    -3.034000000     3.346000000     3.039000000
O     1.567000000     7.162000000    -0.887000000
H     0.647000000     7.394000000    -1.013000000
H     1.544000000     6.390000000    -0.321000000
O     4.755000000    -4.168000000     1.154000000
H     4.478000000    -3.313000000     1.482000000
H     4.650000000    -4.105000000     0.205000000
O     2.176000000    -2.018000000    -5.010000000
H     1.342000000    -1.720000000    -4.647000000
H     1.947000000    -2.393000000    -5.860000000
O    -1.559000000     1.209000000    -2.598000000
H    -0.954000000     1.710000000    -2.051000000
H    -1.602000000     1.698000000    -3.419000000
