161
-3046.92689
C     0.384000000     1.452000000     0.274000000
H     0.553000000     2.487000000     0.561000000
C    -0.952000000     0.844000000     0.336000000
H    -1.837000000     1.428000000     0.575000000
C    -1.151000000    -0.526000000     0.091000000
C    -2.531000000    -0.904000000    -0.315000000
H    -2.769000000    -0.217000000    -1.130000000
H    -2.551000000    -1.937000000    -0.671000000
H    -3.247000000    -0.799000000     0.503000000
C    -0.081000000    -1.339000000     0.060000000
H    -0.364000000    -2.384000000    -0.040000000
C     1.220000000    -0.837000000     0.030000000
H     2.029000000    -1.541000000    -0.149000000
C     1.465000000     0.559000000     0.034000000
C     2.874000000     1.079000000    -0.021000000
O     3.822000000     0.368000000    -0.200000000
O     3.135000000     2.260000000     0.064000000
O     7.503000000     3.920000000     2.865000000
H     6.676000000     3.865000000     2.386000000
H     8.166000000     3.655000000     2.227000000
O     4.320000000    -2.382000000     1.097000000
H     4.323000000    -1.532000000     0.657000000
H     5.211000000    -2.714000000     0.984000000
O     5.293000000     2.440000000     4.223000000
H     4.655000000     1.776000000     3.961000000
H     5.366000000     3.015000000     3.461000000
O     4.440000000     3.892000000    -3.237000000
H     4.142000000     4.459000000    -3.948000000
H     4.713000000     4.497000000    -2.547000000
O    -2.105000000    -0.560000000    -3.758000000
H    -1.530000000     0.204000000    -3.807000000
H    -1.557000000    -1.290000000    -4.046000000
O    -6.467000000     1.997000000    -0.695000000
H    -6.957000000     1.480000000    -1.335000000
H    -6.124000000     2.737000000    -1.197000000
O     7.095000000    -0.802000000     0.822000000
H     7.986000000    -1.029000000     0.555000000
H     7.103000000    -0.884000000     1.776000000
O     0.828000000     3.270000000     4.360000000
H     1.214000000     3.117000000     3.497000000
H    -0.111000000     3.136000000     4.229000000
O    -3.924000000     2.758000000     0.137000000
H    -3.902000000     2.878000000     1.087000000
H    -4.749000000     2.303000000    -0.028000000
O     0.343000000    -4.770000000    -2.948000000
H     1.072000000    -4.151000000    -2.899000000
H    -0.077000000    -4.714000000    -2.090000000
O    -4.080000000    -4.807000000     0.880000000
H    -3.603000000    -5.631000000     0.780000000
H    -3.652000000    -4.371000000     1.617000000
O    -2.259000000     0.001000000     5.344000000
H    -2.943000000    -0.371000000     4.786000000
H    -1.480000000     0.018000000     4.788000000
O     7.911000000     3.854000000    -0.816000000
H     7.226000000     3.186000000    -0.856000000
H     7.492000000     4.648000000    -1.147000000
O     4.275000000    -0.786000000    -2.489000000
H     4.027000000    -0.387000000    -1.655000000
H     4.612000000    -0.059000000    -3.012000000
O    -0.301000000     5.097000000    -0.878000000
H     0.583000000     4.886000000    -1.180000000
H    -0.858000000     4.437000000    -1.292000000
O    -0.735000000    -2.804000000    -4.676000000
H    -0.559000000    -3.558000000    -5.239000000
H     0.034000000    -2.745000000    -4.109000000
O    -3.304000000    -5.921000000    -2.204000000
H    -3.636000000    -5.375000000    -1.492000000
H    -2.840000000    -6.633000000    -1.764000000
O     6.437000000    -4.028000000     0.149000000
H     6.253000000    -3.410000000    -0.559000000
H     6.959000000    -4.716000000    -0.264000000
O     2.098000000    -2.989000000    -3.070000000
H     2.179000000    -2.307000000    -2.404000000
H     2.582000000    -2.649000000    -3.823000000
O    -4.238000000     2.801000000    -3.982000000
H    -3.882000000     3.572000000    -4.424000000
H    -4.170000000     2.100000000    -4.630000000
O    -0.970000000    -5.238000000     2.367000000
H    -0.899000000    -4.298000000     2.530000000
H    -0.635000000    -5.353000000     1.478000000
O     5.968000000    -2.918000000    -2.132000000
H     6.461000000    -2.791000000    -2.943000000
H     5.296000000    -2.236000000    -2.151000000
O     4.839000000     3.927000000     1.594000000
H     4.590000000     4.750000000     1.172000000
H     4.436000000     3.249000000     1.052000000
O    -5.059000000    -0.581000000    -2.487000000
H    -4.127000000    -0.676000000    -2.683000000
H    -5.137000000    -0.836000000    -1.568000000
O    -6.166000000    -2.142000000     0.498000000
H    -5.563000000    -2.782000000     0.118000000
H    -6.194000000    -2.363000000     1.429000000
O    -1.955000000     4.671000000     1.650000000
H    -1.429000000     5.250000000     1.098000000
H    -1.409000000     3.894000000     1.771000000
O    -0.259000000    -2.668000000     2.978000000
H    -0.680000000    -1.861000000     2.680000000
H     0.673000000    -2.452000000     3.014000000
O     3.539000000     6.312000000     1.322000000
H     2.703000000     6.424000000     0.869000000
H     3.945000000     7.178000000     1.293000000
O     2.283000000    -4.929000000     0.379000000
H     2.983000000    -5.482000000     0.727000000
H     2.470000000    -4.058000000     0.728000000
O    -4.580000000     2.566000000     3.450000000
H    -5.123000000     1.939000000     2.971000000
H    -5.147000000     2.887000000     4.150000000
O     8.133000000    -0.514000000    -2.804000000
H     7.501000000     0.196000000    -2.914000000
H     7.905000000    -1.146000000    -3.486000000
O    -2.331000000     3.429000000    -1.950000000
H    -2.854000000     3.002000000    -2.628000000
H    -2.885000000     3.406000000    -1.170000000
O     2.656000000     0.461000000     3.944000000
H     2.838000000    -0.061000000     4.725000000
H     3.470000000     0.434000000     3.442000000
O    -4.287000000    -1.313000000     3.715000000
H    -4.270000000    -2.255000000     3.544000000
H    -4.722000000    -1.232000000     4.564000000
O     4.837000000     0.511000000     2.312000000
H     4.796000000     0.839000000     1.414000000
H     5.190000000    -0.375000000     2.227000000
O    -0.070000000     0.296000000     3.461000000
H     0.871000000     0.286000000     3.637000000
H    -0.215000000     1.112000000     2.982000000
O    -0.257000000    -5.619000000    -0.180000000
H     0.689000000    -5.585000000    -0.039000000
H    -0.371000000    -6.248000000    -0.892000000
O     1.990000000     3.834000000     1.837000000
H     2.399000000     3.230000000     1.217000000
H     2.603000000     4.567000000     1.897000000
O     2.046000000     4.170000000    -1.777000000
H     2.350000000     3.647000000    -1.036000000
H     2.608000000     3.903000000    -2.505000000
O     5.292000000     1.348000000    -4.014000000
H     4.966000000     2.165000000    -3.638000000
H     5.003000000     1.371000000    -4.926000000
O    -7.577000000     0.665000000    -3.180000000
H    -7.423000000     1.414000000    -3.755000000
H    -6.725000000     0.233000000    -3.116000000
O     1.222000000     7.113000000     0.132000000
H     1.315000000     7.505000000    -0.736000000
H     0.694000000     6.328000000    -0.015000000
O     6.252000000     1.559000000    -1.006000000
H     6.524000000     0.863000000    -0.407000000
H     5.301000000     1.601000000    -0.906000000
O    -6.285000000    -3.325000000     2.836000000
H    -6.620000000    -3.477000000     3.719000000
H    -6.563000000    -4.093000000     2.338000000
O    -6.293000000     0.237000000     2.229000000
H    -6.770000000    -0.486000000     1.822000000
H    -5.558000000    -0.182000000     2.677000000
O    -1.816000000     2.954000000     4.158000000
H    -2.681000000     2.922000000     3.750000000
H    -1.936000000     2.529000000     5.007000000
O     2.285000000    -2.393000000     3.095000000
H     3.001000000    -2.267000000     2.472000000
H     2.687000000    -2.260000000     3.953000000
O    -0.371000000     1.551000000    -3.490000000
H    -0.731000000     2.436000000    -3.552000000
H    -0.043000000     1.489000000    -2.593000000
