161
-3041.57965
C     0.137000000     1.404000000     0.305000000
H     0.234000000     2.454000000     0.566000000
C    -1.043000000     0.810000000    -0.080000000
H    -1.983000000     1.348000000     0.011000000
C    -1.044000000    -0.546000000    -0.503000000
C    -2.353000000    -1.213000000    -0.838000000
H    -2.513000000    -1.989000000    -0.086000000
H    -3.173000000    -0.501000000    -0.957000000
H    -2.318000000    -1.737000000    -1.795000000
C     0.164000000    -1.281000000    -0.238000000
H     0.132000000    -2.341000000    -0.479000000
C     1.308000000    -0.691000000     0.312000000
H     2.195000000    -1.316000000     0.252000000
C     1.313000000     0.728000000     0.548000000
C     2.654000000     1.430000000     0.926000000
O     3.673000000     0.787000000     0.928000000
O     2.625000000     2.651000000     1.126000000
O     0.765000000    -5.498000000     3.773000000
H     0.627000000    -4.601000000     3.468000000
H     1.506000000    -5.435000000     4.376000000
O     4.107000000     4.682000000     3.035000000
H     3.240000000     4.980000000     2.760000000
H     3.934000000     4.048000000     3.730000000
O     4.242000000    -2.822000000    -2.073000000
H     4.711000000    -2.231000000    -1.483000000
H     4.772000000    -2.834000000    -2.871000000
O     2.814000000     2.393000000     4.197000000
H     3.528000000     1.757000000     4.232000000
H     2.664000000     2.534000000     3.262000000
O    -1.891000000    -1.866000000    -5.164000000
H    -1.653000000    -0.956000000    -4.990000000
H    -1.084000000    -2.358000000    -5.013000000
O     1.105000000     4.115000000     4.942000000
H     1.717000000     3.391000000     4.813000000
H     0.414000000     3.963000000     4.297000000
O    -4.291000000     3.388000000     0.996000000
H    -4.738000000     3.719000000     1.775000000
H    -4.752000000     2.576000000     0.783000000
O    -0.614000000    -5.265000000    -3.377000000
H    -0.222000000    -4.418000000    -3.590000000
H    -1.523000000    -5.189000000    -3.669000000
O    -4.179000000    -4.142000000    -1.295000000
H    -3.661000000    -4.202000000    -2.098000000
H    -5.081000000    -4.042000000    -1.599000000
O    -3.895000000    -6.486000000    -0.121000000
H    -3.117000000    -6.887000000     0.267000000
H    -3.619000000    -5.598000000    -0.348000000
O    -0.342000000    -0.641000000     3.587000000
H    -0.368000000    -1.418000000     3.029000000
H    -0.260000000     0.090000000     2.975000000
O     7.825000000     4.448000000     0.563000000
H     7.192000000     3.773000000     0.805000000
H     7.612000000     4.662000000    -0.345000000
O     5.004000000    -0.789000000    -0.657000000
H     4.333000000    -0.381000000    -0.110000000
H     4.909000000    -0.364000000    -1.510000000
O     2.891000000    -6.255000000     1.350000000
H     2.149000000    -5.704000000     1.601000000
H     3.641000000    -5.866000000     1.800000000
O    -8.400000000    -1.846000000    -2.294000000
H    -7.516000000    -1.548000000    -2.078000000
H    -8.333000000    -2.800000000    -2.312000000
O    -0.427000000     4.705000000    -2.990000000
H     0.229000000     4.289000000    -2.431000000
H    -1.244000000     4.632000000    -2.496000000
O     1.391000000    -0.428000000     5.823000000
H     1.145000000    -0.614000000     4.916000000
H     0.583000000    -0.114000000     6.230000000
O     0.860000000    -3.295000000    -4.571000000
H     1.572000000    -2.795000000    -4.170000000
H     1.018000000    -3.225000000    -5.512000000
O    -2.426000000     2.323000000    -3.132000000
H    -2.430000000     2.738000000    -2.269000000
H    -1.795000000     2.834000000    -3.640000000
O    -1.083000000    -4.986000000     0.313000000
H    -1.072000000    -5.432000000     1.160000000
H    -0.877000000    -4.074000000     0.519000000
O     6.024000000     6.452000000     2.326000000
H     5.703000000     6.748000000     1.475000000
H     5.450000000     5.721000000     2.558000000
O    -5.571000000     0.995000000    -4.104000000
H    -6.473000000     1.261000000    -4.285000000
H    -5.039000000     1.551000000    -4.673000000
O    -3.245000000    -4.229000000    -4.133000000
H    -3.213000000    -3.290000000    -4.317000000
H    -3.625000000    -4.615000000    -4.923000000
O    -0.286000000     4.848000000     0.527000000
H    -0.955000000     4.926000000    -0.154000000
H     0.533000000     4.730000000     0.046000000
O     1.303000000    -3.393000000     1.842000000
H     2.071000000    -2.904000000     2.137000000
H     1.464000000    -3.555000000     0.913000000
O     3.276000000     6.512000000    -0.460000000
H     2.728000000     6.748000000     0.289000000
H     4.029000000     7.099000000    -0.399000000
O     7.652000000    -1.274000000    -1.558000000
H     7.753000000    -0.587000000    -2.216000000
H     6.791000000    -1.112000000    -1.172000000
O    -2.539000000     3.999000000    -0.920000000
H    -2.960000000     3.512000000    -0.211000000
H    -2.944000000     4.866000000    -0.888000000
O    -0.602000000     0.902000000    -4.595000000
H    -1.316000000     1.215000000    -4.040000000
H     0.100000000     0.685000000    -3.982000000
O    -5.360000000     0.777000000     0.846000000
H    -5.657000000     0.498000000    -0.020000000
H    -4.572000000     0.259000000     1.008000000
O     5.007000000     0.036000000     4.230000000
H     5.934000000     0.246000000     4.340000000
H     4.880000000    -0.001000000     3.282000000
O    -4.436000000    -4.032000000     1.557000000
H    -4.902000000    -4.867000000     1.590000000
H    -4.184000000    -3.935000000     0.639000000
O    -6.572000000     1.583000000     3.210000000
H    -6.027000000     1.048000000     2.634000000
H    -6.999000000     2.208000000     2.624000000
O     6.129000000    -0.951000000     1.921000000
H     5.552000000    -0.845000000     1.166000000
H     6.788000000    -1.582000000     1.633000000
O     3.627000000    -2.501000000     2.801000000
H     3.536000000    -2.130000000     3.679000000
H     4.522000000    -2.282000000     2.540000000
O    -5.845000000    -0.760000000    -2.012000000
H    -5.912000000    -0.191000000    -2.779000000
H    -5.037000000    -1.254000000    -2.151000000
O     1.068000000    -6.965000000    -1.655000000
H     1.407000000    -7.102000000    -2.540000000
H     0.501000000    -6.198000000    -1.733000000
O     1.954000000     4.158000000    -0.850000000
H     2.292000000     3.682000000    -0.091000000
H     2.374000000     5.017000000    -0.800000000
O     3.164000000     2.582000000    -3.142000000
H     3.080000000     2.830000000    -2.221000000
H     3.874000000     3.131000000    -3.474000000
O     4.790000000     0.372000000    -3.242000000
H     4.463000000     1.267000000    -3.147000000
H     4.416000000     0.068000000    -4.069000000
O     5.747000000     2.668000000     0.921000000
H     5.051000000     2.050000000     0.701000000
H     5.313000000     3.341000000     1.445000000
O     7.671000000     2.680000000     3.296000000
H     8.403000000     2.123000000     3.031000000
H     7.041000000     2.606000000     2.579000000
O    -7.067000000    -3.019000000     1.725000000
H    -7.492000000    -3.409000000     2.489000000
H    -6.131000000    -3.118000000     1.895000000
O    -0.886000000     3.394000000     3.133000000
H    -0.908000000     3.938000000     2.345000000
H    -1.673000000     3.643000000     3.617000000
O     3.958000000     5.680000000    -2.957000000
H     3.643000000     5.997000000    -2.110000000
H     3.599000000     6.298000000    -3.593000000
O     1.929000000    -4.162000000    -0.725000000
H     1.748000000    -5.101000000    -0.773000000
H     2.797000000    -4.065000000    -1.116000000
O     1.931000000     6.032000000     2.260000000
H     1.062000000     5.783000000     1.946000000
H     1.879000000     6.980000000     2.384000000
O     1.543000000     0.294000000    -3.269000000
H     2.188000000     1.001000000    -3.283000000
H     1.634000000    -0.096000000    -2.399000000
