161
-3080.88703
C     0.149000000    -0.144000000     1.440000000
H     0.178000000    -0.273000000     2.519000000
C    -0.906000000    -0.647000000     0.699000000
H    -1.683000000    -1.266000000     1.141000000
C    -0.899000000    -0.469000000    -0.691000000
C    -2.007000000    -1.017000000    -1.546000000
H    -2.979000000    -0.847000000    -1.078000000
H    -1.905000000    -0.590000000    -2.546000000
H    -1.845000000    -2.071000000    -1.779000000
C     0.127000000     0.163000000    -1.274000000
H     0.175000000     0.294000000    -2.352000000
C     1.102000000     0.765000000    -0.509000000
H     1.821000000     1.444000000    -0.959000000
C     1.142000000     0.600000000     0.900000000
C     2.192000000     1.210000000     1.785000000
O     3.067000000     1.884000000     1.210000000
O     2.273000000     0.959000000     3.034000000
O     1.097000000     0.510000000    -4.959000000
H     1.891000000     0.916000000    -4.612000000
H     1.214000000     0.527000000    -5.908000000
O    -0.356000000     2.744000000    -4.170000000
H     0.093000000     2.995000000    -3.362000000
H     0.106000000     1.960000000    -4.466000000
O     0.707000000    -0.605000000     5.195000000
H     0.749000000     0.314000000     5.461000000
H     1.559000000    -0.778000000     4.796000000
O     2.184000000     2.206000000     7.981000000
H     2.324000000     3.090000000     8.321000000
H     2.978000000     2.013000000     7.482000000
O    -7.550000000    -1.217000000    -1.754000000
H    -6.771000000    -1.624000000    -1.374000000
H    -7.579000000    -1.548000000    -2.652000000
O    -0.629000000    -2.177000000    -5.132000000
H     0.204000000    -1.718000000    -5.024000000
H    -0.681000000    -2.761000000    -4.376000000
O    -4.818000000     2.122000000     0.693000000
H    -4.965000000     2.848000000     1.299000000
H    -4.178000000     2.458000000     0.067000000
O     1.201000000    -2.935000000     2.945000000
H     2.022000000    -2.456000000     2.832000000
H     0.706000000    -2.415000000     3.578000000
O    -3.181000000    -1.761000000    -5.841000000
H    -3.141000000    -2.196000000    -6.693000000
H    -2.314000000    -1.898000000    -5.460000000
O     2.235000000     5.129000000     4.588000000
H     2.962000000     4.563000000     4.846000000
H     2.324000000     5.218000000     3.639000000
O    -6.576000000    -1.674000000    -4.252000000
H    -5.949000000    -1.036000000    -3.911000000
H    -6.039000000    -2.300000000    -4.739000000
O     4.947000000    -0.061000000     1.152000000
H     4.399000000     0.608000000     1.562000000
H     4.784000000     0.039000000     0.214000000
O    -1.478000000    -3.131000000     4.755000000
H    -1.260000000    -3.036000000     5.682000000
H    -1.580000000    -4.075000000     4.629000000
O    -2.852000000    -0.576000000     3.680000000
H    -2.011000000    -0.896000000     4.006000000
H    -3.494000000    -1.198000000     4.021000000
O     4.548000000     0.426000000    -1.650000000
H     4.656000000     1.377000000    -1.683000000
H     5.316000000     0.082000000    -2.107000000
O    -1.922000000    -5.081000000    -3.489000000
H    -1.527000000    -5.224000000    -2.629000000
H    -2.862000000    -5.028000000    -3.316000000
O    -4.964000000    -3.863000000    -5.169000000
H    -5.254000000    -4.344000000    -5.944000000
H    -4.216000000    -3.348000000    -5.472000000
O    -0.326000000    -5.411000000    -1.314000000
H     0.074000000    -4.659000000    -0.877000000
H    -0.967000000    -5.741000000    -0.685000000
O     4.865000000     3.687000000     0.486000000
H     4.196000000     3.020000000     0.642000000
H     5.178000000     3.921000000     1.360000000
O    -4.506000000    -4.518000000     2.596000000
H    -3.696000000    -4.023000000     2.470000000
H    -4.271000000    -5.421000000     2.380000000
O    -2.852000000     1.883000000     4.473000000
H    -1.952000000     2.096000000     4.227000000
H    -2.960000000     0.967000000     4.219000000
O    -4.723000000    -4.717000000    -2.556000000
H    -4.637000000    -3.927000000    -2.022000000
H    -4.925000000    -4.392000000    -3.434000000
O     3.407000000     2.808000000     4.533000000
H     2.987000000     2.246000000     3.882000000
H     3.466000000     2.262000000     5.317000000
O    -0.276000000     2.412000000     3.740000000
H     0.003000000     2.849000000     4.544000000
H     0.539000000     2.124000000     3.329000000
O    -5.355000000    -2.289000000    -0.334000000
H    -4.949000000    -1.599000000     0.191000000
H    -5.911000000    -2.764000000     0.283000000
O     6.019000000    -1.188000000     3.370000000
H     6.187000000    -2.001000000     2.894000000
H     6.003000000    -0.513000000     2.692000000
O    -5.065000000    -0.470000000     1.602000000
H    -4.959000000     0.339000000     1.101000000
H    -4.367000000    -0.440000000     2.256000000
O     5.669000000     3.914000000     3.083000000
H     6.241000000     3.228000000     3.427000000
H     4.841000000     3.790000000     3.548000000
O    -4.289000000     1.845000000    -5.806000000
H    -4.526000000     1.424000000    -4.980000000
H    -4.068000000     2.744000000    -5.561000000
O    -1.828000000    -4.101000000     1.929000000
H    -1.339000000    -4.861000000     1.612000000
H    -1.214000000    -3.646000000     2.506000000
O    -4.339000000    -0.066000000    -3.813000000
H    -3.661000000    -0.490000000    -4.338000000
H    -3.973000000    -0.035000000    -2.929000000
O    -0.464000000    -2.336000000     7.279000000
H     0.292000000    -2.809000000     7.627000000
H    -0.086000000    -1.640000000     6.742000000
O     1.000000000    -3.479000000     0.200000000
H     1.376000000    -2.648000000    -0.088000000
H     0.678000000    -3.303000000     1.084000000
O     0.956000000     3.763000000    -2.059000000
H     1.249000000     3.465000000    -1.198000000
H     1.745000000     4.119000000    -2.470000000
O     2.039000000    -3.332000000    -5.301000000
H     2.842000000    -3.851000000    -5.251000000
H     1.638000000    -3.427000000    -4.438000000
O     3.452000000     1.699000000    -4.857000000
H     4.223000000     1.492000000    -4.330000000
H     3.382000000     2.653000000    -4.815000000
O     1.771000000     4.741000000     0.743000000
H     2.350000000     5.011000000     0.030000000
H     2.082000000     3.870000000     0.988000000
O     7.601000000    -0.182000000     0.086000000
H     6.734000000    -0.048000000     0.468000000
H     8.170000000    -0.349000000     0.837000000
O     3.149000000    -1.966000000    -1.695000000
H     2.628000000    -1.544000000    -2.378000000
H     3.927000000    -1.416000000    -1.612000000
O    -4.968000000     3.668000000    -2.190000000
H    -4.204000000     3.110000000    -2.040000000
H    -5.716000000     3.078000000    -2.102000000
O     4.560000000     1.479000000     6.694000000
H     5.009000000     0.669000000     6.452000000
H     5.223000000     1.992000000     7.156000000
O     3.218000000    -1.220000000     3.768000000
H     2.902000000    -0.424000000     3.340000000
H     4.161000000    -1.082000000     3.862000000
O     5.635000000     2.804000000    -2.867000000
H     6.197000000     3.191000000    -2.196000000
H     6.236000000     2.550000000    -3.567000000
O    -1.927000000     3.150000000     0.337000000
H    -1.551000000     2.712000000     1.100000000
H    -1.531000000     4.022000000     0.342000000
O     0.949000000    -3.559000000    -2.812000000
H     1.301000000    -3.195000000    -2.000000000
H     0.455000000    -4.331000000    -2.534000000
O    -2.637000000     2.173000000    -2.123000000
H    -1.943000000     2.160000000    -2.782000000
H    -2.176000000     2.087000000    -1.289000000
O     3.431000000     4.816000000    -1.930000000
H     4.089000000     4.275000000    -1.496000000
H     3.834000000     5.683000000    -1.988000000
O    -6.718000000     1.755000000    -1.468000000
H    -7.384000000     1.130000000    -1.180000000
H    -6.307000000     2.058000000    -0.658000000
