161
-3049.45526
C    -0.696000000     0.870000000     1.015000000
H    -1.309000000     1.547000000     1.604000000
C    -1.311000000     0.250000000    -0.045000000
H    -2.364000000     0.397000000    -0.273000000
C    -0.529000000    -0.554000000    -0.948000000
C    -1.122000000    -1.005000000    -2.243000000
H    -1.493000000    -2.025000000    -2.122000000
H    -1.878000000    -0.288000000    -2.571000000
H    -0.452000000    -1.112000000    -3.099000000
C     0.843000000    -0.805000000    -0.696000000
H     1.466000000    -1.407000000    -1.353000000
C     1.429000000    -0.254000000     0.439000000
H     2.472000000    -0.508000000     0.611000000
C     0.622000000     0.576000000     1.302000000
C     1.255000000     1.245000000     2.514000000
O     2.413000000     0.972000000     2.710000000
O     0.653000000     2.093000000     3.152000000
O     4.924000000    -3.555000000    -2.807000000
H     5.554000000    -2.841000000    -2.908000000
H     5.440000000    -4.350000000    -2.934000000
O     2.454000000    -2.389000000    -5.090000000
H     3.134000000    -2.372000000    -5.763000000
H     1.635000000    -2.277000000    -5.574000000
O    -2.777000000     1.765000000    -5.420000000
H    -1.823000000     1.790000000    -5.343000000
H    -2.967000000     0.893000000    -5.766000000
O    -1.073000000    -0.021000000     7.740000000
H    -0.773000000     0.609000000     7.085000000
H    -0.288000000    -0.516000000     7.974000000
O    -3.170000000    -5.089000000     0.695000000
H    -2.508000000    -4.504000000     0.326000000
H    -3.958000000    -4.550000000     0.757000000
O     2.526000000     2.070000000    -2.502000000
H     3.140000000     2.376000000    -1.835000000
H     2.690000000     1.129000000    -2.565000000
O    -5.923000000    -2.865000000    -0.805000000
H    -6.312000000    -2.203000000    -1.377000000
H    -5.395000000    -2.364000000    -0.183000000
O     3.617000000    -5.799000000    -1.726000000
H     4.182000000    -5.040000000    -1.581000000
H     2.741000000    -5.428000000    -1.830000000
O    -2.614000000     4.176000000     6.092000000
H    -3.457000000     3.724000000     6.111000000
H    -1.964000000     3.474000000     6.108000000
O     1.582000000    -3.824000000    -2.415000000
H     0.776000000    -3.716000000    -2.919000000
H     2.272000000    -3.499000000    -2.993000000
O    -7.105000000     0.733000000     0.915000000
H    -7.523000000     1.532000000     1.235000000
H    -6.330000000     1.040000000     0.444000000
O    -0.167000000    -1.382000000    -6.116000000
H    -1.093000000    -1.195000000    -5.962000000
H    -0.170000000    -2.154000000    -6.682000000
O    -2.906000000    -1.372000000    -5.783000000
H    -2.686000000    -2.285000000    -5.599000000
H    -3.360000000    -1.072000000    -4.996000000
O    -3.445000000     3.291000000     2.362000000
H    -2.591000000     3.589000000     2.675000000
H    -3.564000000     2.433000000     2.770000000
O    -4.416000000     0.597000000     3.536000000
H    -4.096000000     0.098000000     4.288000000
H    -5.346000000     0.380000000     3.482000000
O     4.064000000     4.810000000    -0.294000000
H     3.596000000     4.176000000     0.250000000
H     4.547000000     4.275000000    -0.924000000
O    -2.590000000    -1.909000000     2.727000000
H    -2.315000000    -1.507000000     3.551000000
H    -3.128000000    -2.654000000     2.992000000
O     5.893000000    -2.100000000     1.299000000
H     5.357000000    -2.116000000     2.092000000
H     6.740000000    -2.450000000     1.575000000
O    -2.695000000    -4.109000000    -5.855000000
H    -3.216000000    -4.909000000    -5.795000000
H    -2.233000000    -4.186000000    -6.689000000
O     1.603000000     4.183000000     1.389000000
H     1.542000000     4.002000000     0.451000000
H     1.223000000     3.410000000     1.807000000
O    -0.144000000     2.100000000    -4.885000000
H     0.084000000     2.208000000    -3.961000000
H     0.601000000     1.632000000    -5.262000000
O     3.718000000     2.115000000     0.460000000
H     3.406000000     1.796000000     1.306000000
H     4.219000000     1.383000000     0.098000000
O    -4.281000000    -1.215000000     0.805000000
H    -3.565000000    -1.219000000     1.440000000
H    -4.803000000    -0.447000000     1.036000000
O     3.820000000    -3.599000000     0.123000000
H     4.670000000    -3.387000000     0.508000000
H     3.794000000    -3.097000000    -0.691000000
O     1.747000000     0.750000000    -6.128000000
H     2.571000000     0.389000000    -5.801000000
H     1.132000000     0.017000000    -6.088000000
O    -0.545000000    -4.746000000    -4.084000000
H    -0.959000000    -4.223000000    -4.771000000
H    -1.205000000    -5.400000000    -3.851000000
O     5.437000000     0.033000000     5.437000000
H     5.228000000     0.959000000     5.320000000
H     5.116000000    -0.388000000     4.640000000
O    -1.230000000     4.289000000     3.245000000
H    -1.623000000     4.310000000     4.117000000
H    -0.453000000     3.739000000     3.345000000
O    -5.855000000    -3.138000000    -3.984000000
H    -6.270000000    -2.541000000    -4.607000000
H    -5.279000000    -2.578000000    -3.463000000
O     4.730000000    -2.562000000     3.895000000
H     3.928000000    -3.079000000     3.824000000
H     5.208000000    -2.959000000     4.623000000
O     1.742000000    -0.647000000     7.687000000
H     1.626000000    -0.410000000     6.767000000
H     2.194000000    -1.491000000     7.662000000
O     1.538000000     3.906000000     6.298000000
H     1.199000000     4.787000000     6.137000000
H     2.141000000     4.012000000     7.033000000
O    -0.430000000     2.192000000     5.799000000
H    -0.203000000     2.064000000     4.878000000
H     0.288000000     2.716000000     6.152000000
O     5.367000000     0.444000000     2.176000000
H     5.703000000    -0.218000000     1.572000000
H     4.429000000     0.264000000     2.231000000
O    -4.634000000    -0.278000000    -3.859000000
H    -5.553000000    -0.052000000    -3.712000000
H    -4.154000000     0.239000000    -3.212000000
O     2.672000000    -4.439000000     2.603000000
H     1.726000000    -4.474000000     2.458000000
H     3.053000000    -4.597000000     1.739000000
O    -2.349000000     3.355000000    -0.384000000
H    -1.474000000     3.078000000    -0.657000000
H    -2.286000000     3.443000000     0.567000000
O     3.522000000    -0.312000000    -3.158000000
H     4.085000000     0.335000000    -3.582000000
H     3.404000000    -0.996000000    -3.817000000
O     3.425000000     2.502000000     4.811000000
H     3.087000000     2.071000000     4.026000000
H     2.699000000     3.046000000     5.117000000
O     4.376000000     4.495000000     2.546000000
H     4.204000000     4.209000000     3.443000000
H     3.514000000     4.508000000     2.129000000
O    -0.559000000    -2.963000000     0.812000000
H    -1.254000000    -2.560000000     1.332000000
H     0.004000000    -2.232000000     0.557000000
O     1.940000000    -0.301000000     5.102000000
H     1.790000000    -0.285000000     4.157000000
H     2.681000000     0.289000000     5.238000000
O     4.945000000    -0.148000000    -0.816000000
H     5.430000000    -0.930000000    -0.552000000
H     4.592000000    -0.365000000    -1.679000000
O    -5.004000000     1.698000000    -0.058000000
H    -4.768000000     1.767000000    -0.983000000
H    -4.284000000     2.124000000     0.406000000
O     0.854000000    -4.945000000     0.059000000
H     0.218000000    -4.255000000     0.245000000
H     1.206000000    -4.722000000    -0.802000000
O    -3.636000000     1.818000000    -2.731000000
H    -3.254000000     1.876000000    -3.607000000
H    -3.149000000     2.459000000    -2.214000000
O     1.014000000     6.766000000     2.724000000
H     0.729000000     7.300000000     1.983000000
H     0.894000000     5.864000000     2.430000000
O     0.379000000     2.741000000    -1.000000000
H     1.087000000     2.487000000    -1.592000000
H     0.204000000     1.954000000    -0.483000000
