161
-3053.32318
C     0.671000000     0.020000000     1.341000000
H     1.118000000     0.168000000     2.321000000
C    -0.499000000     0.674000000     1.011000000
H    -1.019000000     1.263000000     1.761000000
C    -1.136000000     0.387000000    -0.168000000
C    -2.255000000     1.220000000    -0.658000000
H    -2.215000000     2.172000000    -0.126000000
H    -2.252000000     1.463000000    -1.723000000
H    -3.221000000     0.842000000    -0.317000000
C    -0.577000000    -0.441000000    -1.101000000
H    -1.031000000    -0.354000000    -2.085000000
C     0.621000000    -1.072000000    -0.866000000
H     1.222000000    -1.583000000    -1.613000000
C     1.271000000    -0.779000000     0.339000000
C     2.700000000    -1.241000000     0.611000000
O     3.232000000    -1.920000000    -0.242000000
O     3.375000000    -0.819000000     1.517000000
O     2.856000000     2.693000000     1.241000000
H     2.972000000     3.598000000     0.952000000
H     3.608000000     2.227000000     0.876000000
O     3.775000000     0.026000000    -2.161000000
H     3.585000000    -0.541000000    -1.414000000
H     3.187000000    -0.281000000    -2.851000000
O     5.159000000     2.096000000     4.114000000
H     5.899000000     2.652000000     3.873000000
H     5.318000000     1.871000000     5.031000000
O    -2.142000000    -1.174000000     3.500000000
H    -1.222000000    -0.913000000     3.545000000
H    -2.335000000    -1.518000000     4.372000000
O     7.442000000    -0.276000000    -1.732000000
H     6.825000000     0.091000000    -2.365000000
H     7.023000000    -1.082000000    -1.429000000
O     1.305000000    -0.689000000    -4.121000000
H     0.667000000    -1.256000000    -4.556000000
H     1.886000000    -0.399000000    -4.825000000
O     4.680000000    -3.189000000     2.220000000
H     4.543000000    -2.262000000     2.023000000
H     4.203000000    -3.653000000     1.532000000
O     5.481000000    -3.979000000    -3.152000000
H     5.912000000    -3.550000000    -2.413000000
H     6.009000000    -3.733000000    -3.912000000
O    -0.015000000     3.732000000     0.641000000
H     0.494000000     4.223000000     1.286000000
H     0.388000000     2.865000000     0.627000000
O    -0.404000000    -2.302000000    -6.150000000
H    -0.810000000    -1.464000000    -6.373000000
H     0.337000000    -2.376000000    -6.751000000
O    -5.466000000     1.582000000    -3.430000000
H    -4.873000000     2.295000000    -3.189000000
H    -6.331000000     1.888000000    -3.158000000
O    -3.973000000     3.964000000    -2.806000000
H    -4.237000000     4.731000000    -3.314000000
H    -3.033000000     4.082000000    -2.666000000
O    -3.306000000    -2.139000000    -1.332000000
H    -3.241000000    -1.636000000    -2.144000000
H    -2.572000000    -2.752000000    -1.370000000
O    -0.370000000     2.210000000     5.055000000
H    -0.090000000     3.110000000     5.221000000
H     0.446000000     1.723000000     4.940000000
O    -1.133000000     3.779000000    -3.488000000
H    -0.463000000     3.203000000    -3.120000000
H    -1.044000000     4.595000000    -2.996000000
O     1.143000000     2.025000000    -2.191000000
H     0.544000000     1.425000000    -1.746000000
H     1.797000000     1.454000000    -2.596000000
O    -0.349000000    -4.416000000    -4.567000000
H     0.395000000    -4.904000000    -4.918000000
H    -0.352000000    -3.596000000    -5.061000000
O     6.617000000     3.048000000     1.136000000
H     5.939000000     2.384000000     1.015000000
H     6.973000000     2.872000000     2.007000000
O     6.868000000    -2.447000000     4.892000000
H     7.576000000    -1.804000000     4.841000000
H     6.314000000    -2.253000000     4.136000000
O     4.923000000     1.074000000     0.445000000
H     4.700000000     0.901000000    -0.469000000
H     4.595000000     0.311000000     0.921000000
O    -7.451000000     2.818000000     0.548000000
H    -7.391000000     2.761000000     1.502000000
H    -6.631000000     3.232000000     0.280000000
O     2.272000000    -3.811000000     3.675000000
H     1.794000000    -3.937000000     2.855000000
H     3.191000000    -3.769000000     3.413000000
O    -4.844000000     3.396000000    -0.353000000
H    -4.448000000     4.076000000     0.191000000
H    -4.615000000     3.643000000    -1.249000000
O    -1.428000000     6.250000000     3.320000000
H    -0.514000000     6.396000000     3.077000000
H    -1.542000000     5.301000000     3.263000000
O     3.222000000    -4.068000000    -1.676000000
H     3.988000000    -3.946000000    -2.237000000
H     3.091000000    -3.216000000    -1.260000000
O     3.151000000    -4.086000000    -5.643000000
H     3.509000000    -4.935000000    -5.904000000
H     2.756000000    -4.246000000    -4.786000000
O     0.297000000    -4.722000000     1.437000000
H     0.454000000    -5.044000000     0.549000000
H    -0.308000000    -3.989000000     1.322000000
O     0.493000000    -1.426000000     4.585000000
H     1.232000000    -0.920000000     4.924000000
H     0.870000000    -2.276000000     4.358000000
O     1.813000000     4.663000000    -2.426000000
H     1.532000000     3.819000000    -2.071000000
H     1.960000000     5.210000000    -1.655000000
O     4.203000000    -5.582000000     0.729000000
H     3.448000000    -5.281000000     0.224000000
H     4.490000000    -6.377000000     0.280000000
O     2.947000000    -0.761000000     4.205000000
H     2.934000000     0.196000000     4.199000000
H     3.179000000    -1.003000000     3.308000000
O    -4.187000000     1.070000000     3.023000000
H    -3.580000000     1.788000000     3.205000000
H    -3.752000000     0.294000000     3.375000000
O    -2.236000000     1.668000000    -4.924000000
H    -2.302000000     1.251000000    -4.065000000
H    -1.813000000     2.509000000    -4.750000000
O    -1.955000000     0.066000000    -7.294000000
H    -2.256000000     0.171000000    -6.391000000
H    -1.286000000     0.741000000    -7.403000000
O    -2.738000000     3.239000000     4.002000000
H    -1.953000000     2.956000000     4.471000000
H    -3.407000000     3.322000000     4.681000000
O    -4.441000000    -1.120000000     1.258000000
H    -4.410000000    -0.173000000     1.391000000
H    -4.003000000    -1.258000000     0.418000000
O    -1.269000000    -3.785000000    -1.919000000
H    -1.006000000    -3.744000000    -2.838000000
H    -0.498000000    -4.125000000    -1.464000000
O    -4.114000000    -0.759000000    -3.592000000
H    -4.418000000    -0.858000000    -4.494000000
H    -4.402000000     0.117000000    -3.336000000
O     1.018000000    -5.316000000    -1.193000000
H     1.904000000    -4.996000000    -1.363000000
H     1.051000000    -6.245000000    -1.422000000
O    -3.219000000     5.523000000     0.672000000
H    -3.936000000     6.101000000     0.410000000
H    -3.280000000     5.483000000     1.627000000
O    -1.603000000     0.179000000     6.138000000
H    -2.394000000     0.697000000     6.288000000
H    -1.126000000     0.660000000     5.462000000
O    -7.001000000    -1.909000000    -0.465000000
H    -6.086000000    -1.828000000    -0.197000000
H    -7.360000000    -2.588000000     0.107000000
O     2.405000000     2.066000000     4.109000000
H     3.179000000     2.600000000     4.286000000
H     2.295000000     2.109000000     3.160000000
O    -1.198000000     5.535000000    -1.229000000
H    -2.001000000     5.572000000    -0.709000000
H    -0.699000000     4.813000000    -0.849000000
O     1.044000000     4.542000000     3.797000000
H     1.256000000     5.221000000     4.437000000
H     1.475000000     3.755000000     4.130000000
O     3.827000000    -2.118000000     6.468000000
H     3.473000000    -1.596000000     5.748000000
H     4.550000000    -2.608000000     6.075000000
O    -2.056000000    -2.829000000     1.201000000
H    -2.358000000    -2.411000000     0.394000000
H    -2.160000000    -2.155000000     1.873000000
O     6.375000000    -2.689000000    -0.844000000
H     6.459000000    -3.501000000    -0.344000000
H     5.723000000    -2.179000000    -0.364000000
