161
-3013.44601
C     0.946000000    -1.059000000    -0.389000000
H     1.562000000    -1.878000000    -0.748000000
C    -0.484000000    -1.148000000    -0.272000000
H    -0.905000000    -2.101000000    -0.584000000
C    -1.246000000    -0.094000000     0.161000000
C    -2.713000000    -0.167000000    -0.081000000
H    -3.071000000     0.721000000    -0.606000000
H    -2.847000000    -1.016000000    -0.754000000
H    -3.279000000    -0.332000000     0.838000000
C    -0.609000000     1.103000000     0.461000000
H    -1.210000000     1.995000000     0.621000000
C     0.755000000     1.172000000     0.412000000
H     1.146000000     2.160000000     0.642000000
C     1.612000000     0.081000000     0.006000000
C     3.044000000     0.165000000     0.081000000
O     3.582000000     1.239000000     0.324000000
O     3.718000000    -0.834000000    -0.109000000
O    -0.867000000    -3.915000000     2.534000000
H    -0.629000000    -3.545000000     1.684000000
H    -0.058000000    -4.309000000     2.860000000
O    -6.041000000     1.672000000    -1.427000000
H    -6.334000000     0.765000000    -1.515000000
H    -5.248000000     1.616000000    -0.893000000
O     6.925000000     1.776000000     2.501000000
H     6.835000000     0.969000000     1.994000000
H     6.092000000     2.231000000     2.377000000
O    -7.611000000    -0.931000000    -1.229000000
H    -8.264000000    -1.499000000    -1.638000000
H    -7.769000000    -1.022000000    -0.289000000
O    -3.289000000    -3.517000000     3.802000000
H    -2.941000000    -3.927000000     4.594000000
H    -2.523000000    -3.382000000     3.245000000
O     6.280000000     4.842000000     0.187000000
H     5.709000000     4.312000000     0.743000000
H     6.725000000     5.432000000     0.795000000
O     0.809000000    -1.061000000     5.808000000
H     0.912000000    -0.832000000     4.885000000
H     1.179000000    -1.942000000     5.879000000
O     6.693000000    -4.346000000     1.251000000
H     5.841000000    -3.918000000     1.338000000
H     6.674000000    -4.743000000     0.380000000
O    -1.763000000     2.461000000    -3.601000000
H    -1.657000000     2.708000000    -4.520000000
H    -2.553000000     1.921000000    -3.588000000
O    -2.187000000     1.712000000     4.592000000
H    -3.094000000     1.791000000     4.296000000
H    -1.915000000     0.842000000     4.301000000
O    -4.514000000     4.291000000    -2.726000000
H    -4.695000000     3.355000000    -2.807000000
H    -5.278000000     4.644000000    -2.269000000
O     2.125000000    -5.388000000     0.693000000
H     1.363000000    -5.952000000     0.830000000
H     2.265000000    -5.402000000    -0.254000000
O    -8.112000000    -0.824000000     1.553000000
H    -8.693000000    -1.365000000     2.089000000
H    -8.298000000     0.073000000     1.829000000
O     3.858000000    -2.819000000     1.316000000
H     3.196000000    -3.319000000     0.838000000
H     3.901000000    -1.980000000     0.857000000
O     7.195000000     2.559000000    -1.653000000
H     7.051000000     3.358000000    -1.146000000
H     8.114000000     2.341000000    -1.500000000
O    -0.154000000    -7.668000000     0.376000000
H    -0.596000000    -8.072000000     1.123000000
H    -0.652000000    -6.868000000     0.208000000
O     2.632000000    -0.319000000     3.487000000
H     2.829000000     0.111000000     4.319000000
H     3.097000000     0.201000000     2.832000000
O     2.008000000     6.517000000     2.834000000
H     2.630000000     7.212000000     2.622000000
H     1.692000000     6.211000000     1.983000000
O     2.575000000    -3.341000000    -3.739000000
H     2.686000000    -3.446000000    -4.684000000
H     3.294000000    -2.765000000    -3.477000000
O     4.236000000     1.898000000    -2.149000000
H     5.165000000     1.843000000    -1.921000000
H     3.779000000     1.792000000    -1.314000000
O    -3.825000000     5.149000000     0.588000000
H    -4.128000000     5.833000000     1.185000000
H    -4.404000000     5.220000000    -0.171000000
O     7.080000000     0.984000000    -3.925000000
H     6.201000000     0.606000000    -3.920000000
H     7.166000000     1.404000000    -3.070000000
O     4.673000000    -1.333000000    -3.005000000
H     5.559000000    -1.683000000    -3.100000000
H     4.525000000    -1.308000000    -2.060000000
O     0.968000000    -5.272000000    -2.451000000
H     0.999000000    -6.068000000    -2.981000000
H     1.461000000    -4.627000000    -2.958000000
O    -3.906000000    -4.816000000    -2.065000000
H    -3.836000000    -4.079000000    -2.671000000
H    -4.836000000    -5.042000000    -2.069000000
O     5.456000000     4.944000000     4.075000000
H     4.953000000     4.501000000     3.393000000
H     4.809000000     5.171000000     4.742000000
O     4.840000000     5.443000000    -2.312000000
H     4.582000000     4.526000000    -2.404000000
H     5.322000000     5.475000000    -1.486000000
O    -5.132000000     0.629000000     3.928000000
H    -5.536000000    -0.224000000     4.086000000
H    -5.161000000     0.734000000     2.977000000
O     2.683000000     1.351000000     5.534000000
H     1.989000000     1.017000000     6.102000000
H     2.457000000     2.271000000     5.394000000
O     7.898000000    -1.341000000    -1.552000000
H     7.734000000    -1.820000000    -2.364000000
H     8.850000000    -1.243000000    -1.519000000
O     6.187000000    -0.264000000     0.724000000
H     5.300000000    -0.221000000     0.367000000
H     6.635000000    -0.908000000     0.176000000
O    -1.252000000     5.831000000     1.027000000
H    -2.127000000     5.456000000     0.920000000
H    -0.801000000     5.624000000     0.209000000
O    -6.219000000    -0.706000000    -3.703000000
H    -6.766000000    -0.641000000    -2.919000000
H    -6.772000000    -1.153000000    -4.344000000
O    -3.741000000     0.823000000    -3.859000000
H    -4.633000000     0.491000000    -3.754000000
H    -3.551000000     0.708000000    -4.790000000
O     6.378000000    -1.669000000     3.076000000
H     5.502000000    -2.026000000     2.929000000
H     6.708000000    -1.475000000     2.198000000
O    -1.023000000    -4.907000000    -0.608000000
H    -1.809000000    -5.002000000    -1.147000000
H    -0.317000000    -4.763000000    -1.238000000
O    -4.170000000    -2.967000000    -3.955000000
H    -4.569000000    -2.191000000    -3.562000000
H    -4.024000000    -2.724000000    -4.869000000
O     1.998000000     5.334000000    -0.024000000
H     1.940000000     5.910000000    -0.786000000
H     2.607000000     4.645000000    -0.290000000
O    -0.282000000     3.587000000     3.395000000
H    -0.772000000     4.367000000     3.657000000
H    -0.810000000     2.854000000     3.713000000
O     0.353000000    -0.649000000    -4.373000000
H    -0.093000000    -0.363000000    -3.576000000
H     1.219000000    -0.928000000    -4.075000000
O     4.596000000     3.072000000     1.908000000
H     4.379000000     2.318000000     1.359000000
H     3.881000000     3.119000000     2.543000000
O    -4.963000000     2.048000000     1.051000000
H    -4.194000000     2.565000000     1.292000000
H    -5.675000000     2.686000000     1.006000000
O    -1.770000000     4.917000000    -1.560000000
H    -1.197000000     4.187000000    -1.327000000
H    -2.557000000     4.502000000    -1.912000000
O     2.959000000    -3.116000000     3.865000000
H     3.063000000    -2.170000000     3.964000000
H     3.284000000    -3.301000000     2.984000000
O    -3.848000000    -4.921000000     0.660000000
H    -3.624000000    -4.019000000     0.891000000
H    -3.618000000    -4.995000000    -0.266000000
O     0.817000000     3.525000000    -3.912000000
H     0.061000000     3.049000000    -3.569000000
H     0.987000000     4.206000000    -3.262000000
O     2.378000000     3.733000000     3.676000000
H     1.452000000     3.656000000     3.449000000
H     2.520000000     4.673000000     3.789000000
O     3.460000000     0.494000000    -4.279000000
H     3.631000000     1.206000000    -3.662000000
H     3.904000000    -0.264000000    -3.899000000
