161
-3040.14079
C     0.473000000     0.311000000     1.379000000
H     0.735000000     0.588000000     2.397000000
C    -0.615000000     0.817000000     0.749000000
H    -1.258000000     1.525000000     1.265000000
C    -0.970000000     0.569000000    -0.585000000
C    -2.163000000     1.250000000    -1.202000000
H    -2.288000000     0.759000000    -2.169000000
H    -3.111000000     1.050000000    -0.699000000
H    -2.124000000     2.334000000    -1.331000000
C    -0.234000000    -0.469000000    -1.181000000
H    -0.439000000    -0.922000000    -2.147000000
C     0.863000000    -0.987000000    -0.527000000
H     1.395000000    -1.789000000    -1.031000000
C     1.275000000    -0.684000000     0.738000000
C     2.554000000    -1.226000000     1.319000000
O     3.359000000    -1.687000000     0.535000000
O     2.541000000    -1.447000000     2.482000000
O     5.225000000    -5.797000000    -0.962000000
H     6.155000000    -5.695000000    -1.167000000
H     4.861000000    -4.917000000    -1.053000000
O     1.961000000     2.358000000    -2.155000000
H     2.853000000     2.210000000    -1.842000000
H     1.831000000     1.693000000    -2.831000000
O     4.111000000    -0.414000000    -2.042000000
H     4.550000000     0.408000000    -1.822000000
H     3.559000000    -0.601000000    -1.283000000
O    -3.296000000    -1.674000000    -0.811000000
H    -4.142000000    -1.854000000    -1.221000000
H    -3.337000000    -0.747000000    -0.574000000
O     3.876000000    -2.273000000    -3.935000000
H     2.953000000    -2.180000000    -4.171000000
H     4.030000000    -1.581000000    -3.292000000
O    -4.422000000     0.433000000    -6.294000000
H    -5.039000000     1.160000000    -6.213000000
H    -3.632000000     0.738000000    -5.848000000
O     0.821000000     3.534000000     0.026000000
H    -0.105000000     3.313000000    -0.067000000
H     1.259000000     3.023000000    -0.655000000
O    -5.343000000     0.840000000    -3.050000000
H    -5.264000000     1.711000000    -2.663000000
H    -5.511000000     1.005000000    -3.978000000
O    -4.892000000     3.603000000    -3.081000000
H    -4.135000000     3.802000000    -2.530000000
H    -4.595000000     3.792000000    -3.972000000
O    -5.651000000    -1.760000000    -2.396000000
H    -6.397000000    -1.790000000    -1.797000000
H    -5.526000000    -0.828000000    -2.577000000
O     6.885000000    -1.399000000     4.698000000
H     7.341000000    -1.930000000     5.350000000
H     6.144000000    -1.940000000     4.424000000
O     3.418000000     1.552000000     3.417000000
H     3.671000000     0.670000000     3.144000000
H     4.212000000     1.920000000     3.805000000
O     0.897000000     4.663000000     5.311000000
H     1.268000000     4.232000000     4.540000000
H     1.646000000     5.081000000     5.735000000
O     2.701000000    -3.484000000     6.765000000
H     3.055000000    -2.708000000     6.331000000
H     3.387000000    -3.750000000     7.378000000
O    -0.476000000     3.849000000    -3.913000000
H    -1.119000000     4.319000000    -3.381000000
H     0.163000000     3.520000000    -3.280000000
O     4.757000000     2.141000000    -0.892000000
H     5.397000000     2.027000000    -0.189000000
H     5.075000000     2.898000000    -1.385000000
O     5.903000000    -0.547000000     1.146000000
H     6.372000000    -1.336000000     1.418000000
H     5.170000000    -0.872000000     0.623000000
O    -4.169000000     3.070000000     1.704000000
H    -4.331000000     3.962000000     2.013000000
H    -3.219000000     3.022000000     1.599000000
O     3.013000000    -4.067000000     1.763000000
H     2.815000000    -4.175000000     0.833000000
H     3.008000000    -3.120000000     1.900000000
O    -2.399000000     4.846000000    -2.030000000
H    -2.310000000     5.086000000    -1.108000000
H    -2.761000000     5.628000000    -2.447000000
O    -0.742000000     5.992000000     3.685000000
H    -0.275000000     5.459000000     4.328000000
H    -1.014000000     5.370000000     3.010000000
O     4.178000000    -3.310000000    -1.162000000
H     4.656000000    -2.761000000    -1.785000000
H     3.838000000    -2.694000000    -0.513000000
O    -1.402000000    -2.231000000     2.006000000
H    -0.736000000    -2.284000000     2.692000000
H    -1.282000000    -1.363000000     1.621000000
O     0.025000000    -4.888000000     4.348000000
H     0.403000000    -4.009000000     4.358000000
H     0.679000000    -5.435000000     4.784000000
O    -1.399000000    -2.807000000    -4.297000000
H    -1.003000000    -3.042000000    -5.136000000
H    -2.329000000    -3.002000000    -4.408000000
O     0.247000000    -5.211000000     1.601000000
H     0.996000000    -4.615000000     1.590000000
H    -0.025000000    -5.237000000     2.518000000
O     5.406000000    -4.669000000     3.050000000
H     5.263000000    -5.596000000     3.239000000
H     4.739000000    -4.452000000     2.398000000
O     0.641000000    -2.219000000     4.192000000
H     0.720000000    -1.732000000     5.012000000
H     1.297000000    -1.826000000     3.616000000
O    -2.856000000     0.041000000     3.639000000
H    -2.233000000     0.453000000     4.238000000
H    -2.929000000    -0.861000000     3.952000000
O    -2.477000000     1.811000000    -4.941000000
H    -2.793000000     2.702000000    -5.092000000
H    -2.115000000     1.832000000    -4.055000000
O    -0.706000000    -0.065000000    -7.181000000
H    -0.872000000     0.084000000    -6.250000000
H    -1.352000000     0.479000000    -7.630000000
O    -1.600000000     3.291000000     3.080000000
H    -1.755000000     2.938000000     3.956000000
H    -0.647000000     3.295000000     2.989000000
O    -4.708000000     0.279000000     1.348000000
H    -4.376000000     1.172000000     1.445000000
H    -4.481000000    -0.152000000     2.171000000
O     1.276000000    -1.707000000    -4.508000000
H     1.085000000    -2.187000000    -5.313000000
H     0.497000000    -1.830000000    -3.965000000
O    -5.449000000    -2.711000000     1.730000000
H    -4.982000000    -2.173000000     1.090000000
H    -4.773000000    -2.986000000     2.350000000
O     2.661000000    -4.788000000    -2.539000000
H     3.142000000    -4.097000000    -2.083000000
H     1.844000000    -4.876000000    -2.048000000
O    -1.904000000     5.779000000     0.668000000
H    -2.647000000     6.233000000     1.066000000
H    -1.223000000     6.448000000     0.598000000
O    -5.060000000     1.712000000     5.111000000
H    -4.276000000     1.876000000     4.587000000
H    -5.262000000     0.789000000     4.957000000
O     7.048000000     1.897000000     1.378000000
H     7.974000000     1.668000000     1.455000000
H     6.583000000     1.084000000     1.573000000
O    -1.050000000     1.595000000     5.321000000
H    -0.260000000     1.056000000     5.360000000
H    -1.293000000     1.731000000     6.237000000
O     0.434000000    -5.454000000    -1.274000000
H    -0.173000000    -4.720000000    -1.360000000
H    -0.027000000    -6.083000000    -0.719000000
O     1.407000000     3.300000000     2.874000000
H     1.433000000     3.379000000     1.921000000
H     2.153000000     2.739000000     3.088000000
O     1.781000000     1.045000000    -4.295000000
H     2.183000000     1.307000000    -5.123000000
H     1.634000000     0.104000000    -4.388000000
O    -6.571000000     3.107000000     0.092000000
H    -5.732000000     2.668000000     0.233000000
H    -6.955000000     3.175000000     0.967000000
O     4.176000000    -2.504000000     4.647000000
H     3.634000000    -2.016000000     4.027000000
H     4.371000000    -3.327000000     4.199000000
O    -1.342000000    -3.395000000    -1.673000000
H    -2.060000000    -2.854000000    -1.346000000
H    -1.259000000    -3.151000000    -2.595000000
O     7.270000000    -2.643000000    -1.928000000
H     7.998000000    -2.056000000    -2.131000000
H     7.297000000    -2.738000000    -0.976000000
O     1.703000000     0.836000000     5.220000000
H     2.330000000     1.026000000     4.522000000
H     1.986000000     1.384000000     5.952000000
