161
-3070.22613
C    -0.035000000    -1.534000000    -0.048000000
H    -0.184000000    -2.607000000    -0.133000000
C    -1.114000000    -0.683000000     0.247000000
H    -2.084000000    -1.134000000     0.438000000
C    -0.970000000     0.685000000     0.340000000
C    -2.084000000     1.698000000     0.606000000
H    -3.048000000     1.210000000     0.454000000
H    -1.941000000     1.942000000     1.661000000
H    -2.067000000     2.573000000    -0.047000000
C     0.223000000     1.221000000    -0.031000000
H     0.258000000     2.307000000     0.006000000
C     1.314000000     0.442000000    -0.354000000
H     2.301000000     0.889000000    -0.444000000
C     1.227000000    -0.951000000    -0.311000000
C     2.441000000    -1.787000000    -0.664000000
O     3.256000000    -1.274000000    -1.319000000
O     2.514000000    -3.000000000    -0.404000000
O     0.631000000    -4.301000000     3.184000000
H     0.061000000    -4.434000000     2.427000000
H     1.403000000    -3.862000000     2.828000000
O    -0.825000000     0.076000000     6.140000000
H    -0.535000000     0.958000000     5.908000000
H    -0.799000000    -0.409000000     5.316000000
O     6.661000000    -1.390000000     0.821000000
H     6.204000000    -1.037000000     1.584000000
H     6.140000000    -2.150000000     0.560000000
O    -3.574000000    -3.953000000     2.914000000
H    -3.177000000    -3.546000000     3.684000000
H    -4.289000000    -3.363000000     2.674000000
O    -5.411000000    -1.972000000     2.517000000
H    -6.101000000    -2.026000000     1.856000000
H    -5.627000000    -1.190000000     3.025000000
O    -5.422000000     2.557000000     5.648000000
H    -5.859000000     3.408000000     5.689000000
H    -5.095000000     2.500000000     4.750000000
O    -5.208000000     4.410000000    -0.303000000
H    -5.569000000     5.274000000    -0.505000000
H    -5.000000000     4.032000000    -1.157000000
O    -4.497000000    -1.421000000    -0.770000000
H    -4.129000000    -1.345000000     0.110000000
H    -3.916000000    -0.895000000    -1.320000000
O     0.247000000     5.736000000     4.445000000
H     0.037000000     6.282000000     3.687000000
H    -0.089000000     4.870000000     4.217000000
O    -0.459000000    -6.943000000    -0.939000000
H     0.229000000    -6.283000000    -0.848000000
H    -0.346000000    -7.513000000    -0.178000000
O    -0.873000000     5.878000000    -2.597000000
H    -1.652000000     5.382000000    -2.849000000
H    -0.665000000     5.567000000    -1.716000000
O     5.308000000     0.792000000     2.466000000
H     5.420000000     0.508000000     3.374000000
H     4.389000000     1.055000000     2.410000000
O    -0.615000000     2.668000000     4.033000000
H    -1.474000000     2.247000000     4.034000000
H    -0.032000000     2.023000000     3.633000000
O     2.298000000     1.830000000    -3.378000000
H     1.937000000     2.155000000    -4.202000000
H     2.616000000     0.951000000    -3.586000000
O     2.929000000    -0.753000000    -4.072000000
H     3.765000000    -0.515000000    -4.473000000
H     3.168000000    -1.141000000    -3.230000000
O     3.568000000    -3.593000000    -4.933000000
H     4.047000000    -3.414000000    -4.124000000
H     3.134000000    -2.765000000    -5.142000000
O    -3.088000000     4.422000000    -3.406000000
H    -2.603000000     4.294000000    -4.222000000
H    -4.003000000     4.490000000    -3.680000000
O     1.270000000    -4.493000000    -2.448000000
H     1.713000000    -3.978000000    -1.775000000
H     1.617000000    -5.379000000    -2.340000000
O    -6.528000000    -0.166000000     4.331000000
H    -5.968000000     0.572000000     4.088000000
H    -6.006000000    -0.667000000     4.957000000
O     3.300000000    -6.146000000    -4.321000000
H     4.246000000    -6.127000000    -4.466000000
H     3.027000000    -5.233000000    -4.405000000
O    -4.775000000     5.179000000     2.461000000
H    -4.618000000     4.623000000     1.699000000
H    -5.629000000     4.899000000     2.790000000
O     6.589000000     2.729000000     0.987000000
H     6.519000000     3.249000000     1.788000000
H     5.927000000     2.045000000     1.087000000
O     1.109000000    -7.919000000     1.332000000
H     1.459000000    -7.046000000     1.155000000
H     1.879000000    -8.486000000     1.352000000
O     5.160000000     0.542000000    -1.063000000
H     4.435000000    -0.050000000    -1.263000000
H     5.603000000     0.135000000    -0.319000000
O     1.706000000    -5.387000000     0.368000000
H     2.516000000    -5.571000000     0.845000000
H     1.846000000    -4.521000000    -0.015000000
O    -3.533000000     0.542000000    -3.051000000
H    -2.681000000     0.933000000    -2.861000000
H    -3.398000000     0.058000000    -3.866000000
O    -2.010000000    -0.386000000     3.462000000
H    -1.928000000    -1.244000000     3.877000000
H    -1.473000000    -0.449000000     2.672000000
O    -5.471000000     2.091000000     1.162000000
H    -5.471000000     2.960000000     0.762000000
H    -6.382000000     1.801000000     1.104000000
O     4.664000000    -3.260000000     2.859000000
H     5.115000000    -3.552000000     3.651000000
H     4.957000000    -3.868000000     2.180000000
O    -6.737000000    -1.511000000    -2.294000000
H    -5.930000000    -1.219000000    -1.871000000
H    -7.080000000    -2.190000000    -1.712000000
O    -1.042000000     1.328000000    -3.011000000
H    -0.396000000     1.945000000    -3.355000000
H    -0.523000000     0.591000000    -2.691000000
O     4.877000000    -2.953000000    -2.772000000
H     5.193000000    -3.481000000    -2.039000000
H     4.377000000    -2.248000000    -2.361000000
O     0.031000000    -4.047000000    -5.056000000
H    -0.542000000    -4.799000000    -5.205000000
H     0.673000000    -4.358000000    -4.418000000
O     1.617000000     4.618000000    -0.907000000
H     2.452000000     4.152000000    -0.945000000
H     1.335000000     4.682000000    -1.819000000
O     2.880000000     2.371000000     1.992000000
H     2.954000000     3.193000000     2.477000000
H     2.810000000     2.639000000     1.076000000
O     3.977000000    -6.410000000     1.579000000
H     4.615000000    -7.041000000     1.246000000
H     3.953000000    -6.568000000     2.523000000
O     2.153000000     6.103000000     1.310000000
H     1.778000000     5.530000000     0.641000000
H     1.426000000     6.666000000     1.576000000
O     1.061000000     0.439000000     3.187000000
H     1.508000000     1.010000000     2.562000000
H     1.291000000    -0.447000000     2.909000000
O     0.034000000    -1.406000000    -3.789000000
H     0.923000000    -1.282000000    -4.121000000
H    -0.197000000    -2.297000000    -4.048000000
O    -1.675000000    -2.621000000     4.880000000
H    -0.929000000    -3.220000000     4.904000000
H    -1.936000000    -2.525000000     5.796000000
O     2.096000000    -1.936000000     2.600000000
H     2.714000000    -2.447000000     3.124000000
H     2.560000000    -1.767000000     1.780000000
O     5.048000000    -3.939000000     0.045000000
H     4.996000000    -4.891000000     0.136000000
H     4.146000000    -3.665000000    -0.120000000
O     3.821000000     3.115000000    -0.912000000
H     4.600000000     2.586000000    -0.741000000
H     3.431000000     2.722000000    -1.692000000
O    -5.591000000     2.252000000    -3.011000000
H    -5.578000000     2.331000000    -3.965000000
H    -4.876000000     1.648000000    -2.811000000
O    -4.544000000     1.393000000     3.491000000
H    -4.900000000     1.582000000     2.623000000
H    -3.701000000     0.973000000     3.318000000
O    -1.133000000    -4.708000000     1.027000000
H    -1.318000000    -4.623000000     0.091000000
H    -1.881000000    -4.294000000     1.457000000
O    -1.518000000    -4.475000000    -2.000000000
H    -1.566000000    -5.406000000    -1.783000000
H    -0.581000000    -4.300000000    -2.096000000
O     7.037000000     0.622000000    -3.451000000
H     6.377000000     0.900000000    -2.816000000
H     7.387000000    -0.193000000    -3.091000000
