161
-3056.08281
C     0.505000000    -1.343000000    -0.409000000
H     0.762000000    -2.396000000    -0.488000000
C    -0.849000000    -1.019000000    -0.171000000
H    -1.650000000    -1.738000000    -0.327000000
C    -1.188000000     0.303000000     0.074000000
C    -2.576000000     0.743000000     0.342000000
H    -3.099000000     0.905000000    -0.602000000
H    -3.033000000     0.041000000     1.042000000
H    -2.625000000     1.686000000     0.892000000
C    -0.197000000     1.237000000     0.067000000
H    -0.425000000     2.300000000     0.080000000
C     1.120000000     0.919000000    -0.071000000
H     1.931000000     1.639000000    -0.144000000
C     1.531000000    -0.426000000    -0.291000000
C     2.939000000    -0.798000000    -0.126000000
O     3.537000000    -0.162000000     0.708000000
O     3.313000000    -1.897000000    -0.582000000
O    -1.981000000    -5.738000000    -2.199000000
H    -2.237000000    -5.699000000    -1.278000000
H    -1.323000000    -5.050000000    -2.295000000
O     6.226000000     1.528000000    -1.873000000
H     5.829000000     1.711000000    -1.022000000
H     6.056000000     0.597000000    -2.022000000
O     1.111000000    -5.675000000     0.505000000
H     1.857000000    -5.076000000     0.476000000
H     1.429000000    -6.475000000     0.086000000
O     7.105000000    -2.122000000    -3.611000000
H     7.530000000    -1.463000000    -4.160000000
H     6.916000000    -1.665000000    -2.791000000
O    -4.273000000    -1.678000000    -2.044000000
H    -3.785000000    -1.432000000    -1.258000000
H    -4.910000000    -2.324000000    -1.738000000
O     3.055000000     0.169000000     3.490000000
H     2.163000000     0.502000000     3.395000000
H     3.319000000    -0.066000000     2.601000000
O     2.530000000    -3.446000000    -2.646000000
H     2.931000000    -2.995000000    -1.903000000
H     2.718000000    -2.885000000    -3.398000000
O     3.490000000    -2.141000000     5.143000000
H     4.220000000    -1.747000000     5.621000000
H     3.055000000    -1.402000000     4.718000000
O     3.058000000    -6.176000000    -2.270000000
H     3.957000000    -6.182000000    -1.942000000
H     2.839000000    -5.247000000    -2.352000000
O     2.033000000     5.212000000     0.637000000
H     1.133000000     5.415000000     0.379000000
H     2.429000000     4.840000000    -0.151000000
O     0.203000000    -4.412000000     2.949000000
H     0.634000000    -4.484000000     2.098000000
H     0.324000000    -5.272000000     3.352000000
O     1.222000000     1.998000000    -3.019000000
H     1.302000000     2.247000000    -2.099000000
H     1.918000000     1.355000000    -3.155000000
O    -4.862000000    -3.064000000     3.016000000
H    -4.052000000    -3.564000000     3.113000000
H    -5.112000000    -2.837000000     3.912000000
O    -1.606000000     1.529000000     3.349000000
H    -0.763000000     1.418000000     3.789000000
H    -1.430000000     1.304000000     2.435000000
O    -3.041000000     4.525000000     0.504000000
H    -3.248000000     4.754000000     1.410000000
H    -3.695000000     3.868000000     0.267000000
O    -4.423000000    -4.154000000     0.501000000
H    -4.639000000    -3.588000000     1.242000000
H    -3.469000000    -4.225000000     0.523000000
O    -6.667000000     4.687000000    -1.796000000
H    -6.553000000     3.737000000    -1.769000000
H    -7.202000000     4.886000000    -1.028000000
O     3.435000000    -4.311000000     0.275000000
H     4.043000000    -4.631000000    -0.392000000
H     3.340000000    -3.378000000     0.085000000
O     3.364000000     4.117000000    -1.441000000
H     3.947000000     3.633000000    -0.857000000
H     3.938000000     4.447000000    -2.132000000
O    -4.081000000     2.004000000     4.067000000
H    -4.595000000     2.504000000     3.433000000
H    -3.190000000     2.019000000     3.717000000
O    -0.669000000    -1.508000000     2.678000000
H    -0.327000000    -1.155000000     1.857000000
H    -0.553000000    -2.455000000     2.598000000
O     2.447000000    -2.239000000    -5.211000000
H     2.633000000    -2.498000000    -6.113000000
H     1.547000000    -1.913000000    -5.235000000
O    -6.500000000    -3.215000000    -1.209000000
H    -5.845000000    -3.718000000    -0.724000000
H    -7.316000000    -3.361000000    -0.730000000
O    -6.580000000    -1.632000000     1.469000000
H    -7.425000000    -1.771000000     1.897000000
H    -6.068000000    -2.409000000     1.693000000
O    -6.767000000     1.435000000     2.380000000
H    -7.697000000     1.228000000     2.293000000
H    -6.322000000     0.595000000     2.271000000
O    -0.026000000    -1.234000000    -5.231000000
H    -0.832000000    -1.435000000    -4.754000000
H    -0.249000000    -0.474000000    -5.769000000
O    -0.220000000     5.088000000    -2.789000000
H     0.412000000     4.390000000    -2.960000000
H    -0.203000000     5.199000000    -1.838000000
O    -2.377000000    -1.417000000     4.927000000
H    -1.917000000    -1.553000000     4.099000000
H    -1.710000000    -1.068000000     5.518000000
O    -1.931000000    -5.122000000     0.523000000
H    -0.998000000    -5.303000000     0.409000000
H    -2.194000000    -5.672000000     1.261000000
O     5.444000000    -5.626000000    -1.190000000
H     5.825000000    -6.198000000    -0.525000000
H     6.157000000    -5.037000000    -1.437000000
O     6.118000000    -1.137000000    -1.294000000
H     5.254000000    -1.549000000    -1.264000000
H     6.444000000    -1.201000000    -0.396000000
O    -0.336000000    -3.670000000    -2.602000000
H    -0.605000000    -2.843000000    -3.000000000
H     0.620000000    -3.660000000    -2.652000000
O     3.382000000     0.274000000    -3.984000000
H     3.364000000    -0.672000000    -4.126000000
H     3.651000000     0.637000000    -4.828000000
O    -6.001000000     2.020000000    -2.104000000
H    -6.292000000     1.342000000    -2.714000000
H    -5.976000000     1.581000000    -1.254000000
O     5.657000000    -1.459000000     1.721000000
H     5.302000000    -2.060000000     2.376000000
H     4.889000000    -1.014000000     1.362000000
O    -4.000000000     2.507000000    -3.818000000
H    -4.621000000     2.533000000    -3.090000000
H    -3.395000000     1.801000000    -3.592000000
O    -2.333000000    -1.933000000    -4.102000000
H    -2.532000000    -2.677000000    -4.671000000
H    -3.147000000    -1.772000000    -3.626000000
O     5.219000000     2.952000000    -4.177000000
H     5.279000000     3.860000000    -3.882000000
H     5.328000000     2.433000000    -3.381000000
O    -4.966000000    -0.600000000     4.695000000
H    -4.702000000     0.244000000     4.327000000
H    -4.141000000    -1.048000000     4.883000000
O    -5.627000000     3.061000000     0.740000000
H    -6.070000000     2.503000000     1.380000000
H    -5.973000000     3.938000000     0.908000000
O     2.694000000     5.131000000     3.308000000
H     1.954000000     4.971000000     3.893000000
H     2.310000000     5.125000000     2.430000000
O    -0.737000000     5.686000000     0.125000000
H    -1.596000000     5.263000000     0.135000000
H    -0.925000000     6.614000000     0.264000000
O     4.514000000     1.766000000     5.505000000
H     3.881000000     1.528000000     4.826000000
H     4.635000000     0.962000000     6.010000000
O    -7.760000000     0.050000000    -0.292000000
H    -7.812000000     0.748000000     0.361000000
H    -7.412000000    -0.701000000     0.189000000
O     4.838000000     3.470000000     2.877000000
H     4.933000000     2.797000000     3.551000000
H     4.137000000     4.036000000     3.201000000
O    -1.845000000     0.809000000    -3.306000000
H    -1.487000000     0.647000000    -2.433000000
H    -1.785000000    -0.036000000    -3.751000000
O     4.561000000     2.252000000     0.321000000
H     4.306000000     1.404000000     0.685000000
H     4.616000000     2.832000000     1.080000000
O     7.891000000    -0.075000000     1.093000000
H     7.811000000     0.811000000     1.448000000
H     7.200000000    -0.571000000     1.532000000
