161
-3005.22222
C    -0.541000000     0.552000000     1.244000000
H    -1.085000000     0.935000000     2.103000000
C    -0.685000000     1.100000000    -0.006000000
H    -1.396000000     1.917000000    -0.097000000
C    -0.061000000     0.540000000    -1.140000000
C    -0.244000000     1.106000000    -2.569000000
H    -0.487000000     0.297000000    -3.261000000
H    -1.047000000     1.843000000    -2.493000000
H     0.544000000     1.657000000    -3.085000000
C     0.606000000    -0.695000000    -0.963000000
H     1.124000000    -1.196000000    -1.778000000
C     0.786000000    -1.187000000     0.380000000
H     1.329000000    -2.109000000     0.573000000
C     0.189000000    -0.623000000     1.493000000
C     0.269000000    -1.257000000     2.834000000
O     1.260000000    -1.862000000     3.108000000
O    -0.562000000    -1.016000000     3.655000000
O    -3.075000000     0.102000000     3.587000000
H    -3.528000000    -0.736000000     3.492000000
H    -2.161000000    -0.136000000     3.742000000
O     4.065000000    -2.439000000     6.386000000
H     3.996000000    -3.394000000     6.402000000
H     4.626000000    -2.227000000     7.132000000
O    -5.090000000     1.588000000    -0.570000000
H    -4.592000000     1.660000000     0.244000000
H    -4.823000000     0.747000000    -0.941000000
O    -2.277000000    -3.645000000    -1.984000000
H    -2.210000000    -3.105000000    -1.197000000
H    -1.381000000    -3.937000000    -2.151000000
O    -0.065000000    -2.866000000    -4.913000000
H    -0.321000000    -3.258000000    -5.748000000
H     0.858000000    -2.640000000    -5.027000000
O    -1.098000000    -2.081000000     6.112000000
H    -0.872000000    -1.811000000     5.222000000
H    -0.379000000    -1.754000000     6.651000000
O    -0.039000000     3.925000000     2.900000000
H     0.681000000     4.212000000     2.338000000
H     0.211000000     3.045000000     3.180000000
O    -4.045000000    -0.583000000    -2.054000000
H    -3.512000000    -1.144000000    -1.491000000
H    -3.655000000    -0.675000000    -2.923000000
O     3.771000000    -0.071000000    -1.708000000
H     3.189000000     0.446000000    -2.264000000
H     4.203000000    -0.677000000    -2.311000000
O    -3.777000000     2.136000000    -3.759000000
H    -4.298000000     2.786000000    -3.286000000
H    -3.688000000     1.407000000    -3.145000000
O     3.610000000     1.818000000     3.975000000
H     3.286000000     0.929000000     4.118000000
H     3.671000000     1.901000000     3.023000000
O    -3.785000000    -2.465000000     5.696000000
H    -3.989000000    -2.668000000     4.783000000
H    -2.831000000    -2.525000000     5.747000000
O    -2.859000000     4.369000000     3.122000000
H    -1.976000000     4.056000000     3.320000000
H    -2.722000000     5.194000000     2.657000000
O     0.071000000     4.461000000     5.537000000
H    -0.495000000     5.206000000     5.736000000
H    -0.006000000     4.348000000     4.589000000
O     1.265000000     0.475000000     7.411000000
H     1.828000000     0.386000000     6.643000000
H     1.821000000     0.217000000     8.147000000
O    -0.797000000    -4.003000000     0.822000000
H    -1.706000000    -4.094000000     0.537000000
H    -0.286000000    -4.423000000     0.130000000
O    -1.500000000     2.009000000     7.555000000
H    -1.270000000     2.938000000     7.552000000
H    -0.706000000     1.565000000     7.256000000
O     1.402000000    -5.987000000     6.505000000
H     1.477000000    -5.272000000     5.872000000
H     1.066000000    -6.724000000     5.994000000
O     1.316000000     6.327000000    -3.832000000
H     1.383000000     7.143000000    -3.336000000
H     1.124000000     5.661000000    -3.172000000
O     5.084000000    -1.100000000    -3.870000000
H     5.033000000    -0.695000000    -4.735000000
H     5.246000000    -2.026000000    -4.047000000
O    -2.571000000     3.594000000    -5.815000000
H    -2.805000000     3.140000000    -5.006000000
H    -1.704000000     3.257000000    -6.037000000
O     3.576000000    -1.663000000     2.007000000
H     4.229000000    -2.107000000     2.549000000
H     2.741000000    -1.853000000     2.435000000
O    -1.637000000    -5.466000000     4.854000000
H    -2.568000000    -5.647000000     4.720000000
H    -1.623000000    -4.682000000     5.403000000
O     3.300000000     0.905000000     1.165000000
H     2.851000000     0.216000000     1.655000000
H     3.472000000     0.517000000     0.307000000
O     0.229000000     2.295000000    -7.204000000
H     0.126000000     1.444000000    -7.630000000
H     1.169000000     2.370000000    -7.042000000
O    -2.754000000    -1.667000000    -4.049000000
H    -2.008000000    -1.529000000    -4.633000000
H    -2.548000000    -2.479000000    -3.586000000
O    -0.898000000    -6.380000000     2.169000000
H    -0.723000000    -5.549000000     1.728000000
H    -1.089000000    -6.136000000     3.074000000
O    -4.052000000     1.924000000     1.807000000
H    -4.067000000     2.618000000     2.466000000
H    -3.579000000     1.205000000     2.227000000
O     0.371000000     1.530000000     4.114000000
H     0.727000000     1.399000000     4.993000000
H     0.012000000     0.676000000     3.872000000
O    -0.567000000     5.587000000    -5.696000000
H    -1.173000000     4.910000000    -5.394000000
H     0.108000000     5.624000000    -5.018000000
O     1.674000000     3.025000000     0.333000000
H     2.415000000     2.441000000     0.496000000
H     0.925000000     2.438000000     0.233000000
O    -5.505000000    -0.181000000     5.439000000
H    -6.115000000    -0.606000000     4.836000000
H    -4.680000000    -0.651000000     5.315000000
O     0.826000000     4.724000000    -1.673000000
H     1.399000000     4.166000000    -1.148000000
H     0.600000000     5.450000000    -1.092000000
O     2.642000000    -0.510000000     5.072000000
H     2.267000000    -1.108000000     4.425000000
H     3.157000000    -1.073000000     5.649000000
O    -3.547000000     6.487000000    -2.533000000
H    -4.334000000     6.604000000    -3.065000000
H    -3.490000000     5.542000000    -2.393000000
O     3.106000000     1.751000000    -3.970000000
H     3.423000000     2.207000000    -4.750000000
H     2.343000000     1.260000000    -4.274000000
O     3.487000000    -6.494000000     1.569000000
H     3.922000000    -5.921000000     2.200000000
H     3.354000000    -5.944000000     0.797000000
O     1.964000000    -1.388000000    -6.460000000
H     1.772000000    -1.725000000    -7.335000000
H     2.365000000    -0.533000000    -6.615000000
O    -4.502000000     4.030000000    -1.688000000
H    -4.883000000     4.762000000    -1.203000000
H    -4.768000000     3.253000000    -1.197000000
O     5.870000000    -1.421000000    -0.099000000
H     6.007000000    -0.536000000     0.239000000
H     5.038000000    -1.372000000    -0.569000000
O     4.823000000     3.041000000    -1.315000000
H     5.101000000     3.840000000    -1.763000000
H     4.281000000     2.583000000    -1.957000000
O    -1.738000000    -0.929000000    -6.563000000
H    -0.860000000    -0.722000000    -6.242000000
H    -1.770000000    -1.886000000    -6.572000000
O     0.162000000    -5.196000000    -1.463000000
H     1.092000000    -5.223000000    -1.241000000
H     0.123000000    -5.508000000    -2.368000000
O    -4.214000000    -2.528000000     2.975000000
H    -5.099000000    -2.464000000     2.617000000
H    -3.822000000    -3.269000000     2.514000000
O     5.300000000    -2.665000000     4.064000000
H     6.173000000    -2.657000000     4.455000000
H     4.708000000    -2.497000000     4.796000000
O     1.474000000    -4.235000000     4.347000000
H     1.269000000    -3.407000000     3.913000000
H     2.249000000    -4.560000000     3.890000000
O    -2.520000000    -1.589000000    -0.135000000
H    -2.558000000    -2.232000000     0.573000000
H    -1.925000000    -0.912000000     0.189000000
O     4.168000000    -5.143000000     3.817000000
H     4.433000000    -4.241000000     3.640000000
H     4.282000000    -5.245000000     4.762000000
