161
-3057.82517
C    -0.688000000     0.704000000     1.160000000
H    -1.310000000     1.160000000     1.926000000
C    -0.719000000     1.156000000    -0.171000000
H    -1.373000000     1.967000000    -0.480000000
C    -0.061000000     0.397000000    -1.138000000
C    -0.102000000     0.771000000    -2.582000000
H     0.891000000     0.953000000    -2.999000000
H    -0.418000000    -0.092000000    -3.171000000
H    -0.886000000     1.482000000    -2.849000000
C     0.675000000    -0.722000000    -0.806000000
H     1.159000000    -1.326000000    -1.570000000
C     0.719000000    -1.129000000     0.491000000
H     1.324000000    -2.016000000     0.664000000
C     0.024000000    -0.475000000     1.509000000
C     0.197000000    -0.822000000     2.971000000
O     0.894000000    -1.832000000     3.203000000
O    -0.330000000    -0.175000000     3.844000000
O    -2.999000000     0.332000000     4.076000000
H    -3.187000000     0.540000000     3.161000000
H    -2.092000000     0.027000000     4.071000000
O     5.194000000    -1.648000000     4.801000000
H     4.406000000    -1.500000000     5.324000000
H     5.659000000    -0.812000000     4.827000000
O     2.480000000    -4.650000000    -0.183000000
H     2.071000000    -4.441000000     0.657000000
H     3.283000000    -5.115000000     0.050000000
O    -3.233000000    -0.963000000    -3.648000000
H    -4.090000000    -1.385000000    -3.590000000
H    -3.424000000    -0.026000000    -3.601000000
O     1.653000000    -4.794000000    -2.794000000
H     1.818000000    -4.613000000    -1.869000000
H     1.664000000    -3.933000000    -3.212000000
O    -0.252000000    -0.781000000     6.424000000
H    -1.197000000    -0.804000000     6.579000000
H    -0.166000000    -0.533000000     5.504000000
O    -1.741000000    -2.591000000    -1.602000000
H    -1.676000000    -1.967000000    -0.880000000
H    -2.336000000    -2.175000000    -2.226000000
O    -3.662000000    -3.951000000     4.309000000
H    -2.837000000    -3.474000000     4.215000000
H    -3.862000000    -3.902000000     5.244000000
O    -0.168000000     4.592000000     3.377000000
H     0.234000000     5.216000000     3.982000000
H     0.274000000     4.750000000     2.543000000
O    -3.727000000     1.780000000    -3.108000000
H    -3.506000000     2.369000000    -2.386000000
H    -3.392000000     2.221000000    -3.888000000
O    -1.673000000     4.415000000    -1.015000000
H    -2.313000000     4.773000000    -1.630000000
H    -0.847000000     4.420000000    -1.498000000
O     3.655000000     1.363000000     1.151000000
H     3.803000000     0.871000000     0.344000000
H     3.569000000     0.693000000     1.829000000
O    -6.135000000     0.364000000    -3.794000000
H    -6.438000000    -0.340000000    -3.221000000
H    -5.377000000     0.733000000    -3.341000000
O     2.639000000     3.673000000     6.215000000
H     1.892000000     3.183000000     5.872000000
H     3.373000000     3.061000000     6.158000000
O    -4.440000000     4.285000000    -1.999000000
H    -5.192000000     4.412000000    -2.578000000
H    -4.816000000     4.268000000    -1.119000000
O     5.343000000    -3.377000000    -1.875000000
H     6.229000000    -3.480000000    -1.527000000
H     4.863000000    -2.928000000    -1.179000000
O    -0.083000000     2.277000000     7.357000000
H     0.346000000     1.429000000     7.472000000
H     0.084000000     2.508000000     6.444000000
O     4.264000000     3.733000000    -3.781000000
H     3.387000000     3.547000000    -3.446000000
H     4.606000000     2.878000000    -4.043000000
O     1.458000000     1.391000000    -5.680000000
H     1.924000000     0.882000000    -5.017000000
H     2.130000000     1.948000000    -6.072000000
O    -2.031000000     5.673000000     1.321000000
H    -1.652000000     5.288000000     0.531000000
H    -1.504000000     6.455000000     1.483000000
O     3.535000000    -1.550000000     2.496000000
H     4.164000000    -1.609000000     3.214000000
H     2.684000000    -1.689000000     2.911000000
O    -0.457000000    -5.227000000     6.442000000
H    -0.495000000    -5.984000000     5.857000000
H    -0.566000000    -4.472000000     5.864000000
O    -0.264000000    -6.995000000     0.842000000
H    -1.120000000    -6.913000000     1.263000000
H     0.244000000    -6.260000000     1.185000000
O    -3.116000000     2.717000000    -5.819000000
H    -3.522000000     3.577000000    -5.715000000
H    -2.266000000     2.900000000    -6.219000000
O    -0.892000000    -3.589000000     4.273000000
H    -0.737000000    -4.082000000     3.467000000
H    -0.196000000    -2.933000000     4.291000000
O     0.656000000     2.267000000     4.728000000
H     0.178000000     2.968000000     4.286000000
H     0.427000000     1.476000000     4.240000000
O     1.428000000     3.184000000     0.467000000
H     0.695000000     2.569000000     0.488000000
H     2.167000000     2.689000000     0.820000000
O    -2.988000000    -0.960000000     6.518000000
H    -3.607000000    -1.612000000     6.845000000
H    -3.376000000    -0.648000000     5.700000000
O     2.074000000     3.558000000    -2.267000000
H     1.205000000     3.682000000    -2.649000000
H     1.904000000     3.353000000    -1.348000000
O     2.509000000    -1.528000000     5.412000000
H     1.841000000    -1.717000000     4.754000000
H     2.029000000    -1.111000000     6.128000000
O     0.434000000    -1.697000000     9.015000000
H     0.092000000    -1.380000000     8.179000000
H    -0.233000000    -1.450000000     9.656000000
O    -3.670000000     4.025000000     3.074000000
H    -4.172000000     3.323000000     2.659000000
H    -3.158000000     4.406000000     2.361000000
O     3.289000000    -1.524000000    -4.476000000
H     3.965000000    -2.202000000    -4.501000000
H     2.501000000    -1.959000000    -4.803000000
O    -0.687000000     2.682000000    -6.999000000
H    -0.457000000     2.203000000    -7.795000000
H     0.002000000     2.453000000    -6.374000000
O     1.238000000    -3.259000000    -5.320000000
H     1.010000000    -4.165000000    -5.110000000
H     0.462000000    -2.754000000    -5.077000000
O     4.953000000     0.674000000    -4.169000000
H     4.309000000    -0.030000000    -4.237000000
H     5.555000000     0.518000000    -4.897000000
O    -0.338000000     4.467000000    -3.373000000
H    -1.116000000     3.960000000    -3.606000000
H    -0.388000000     5.248000000    -3.925000000
O     3.001000000    -4.470000000     4.702000000
H     3.758000000    -5.055000000     4.719000000
H     3.271000000    -3.712000000     5.220000000
O    -2.122000000    -0.337000000    -7.295000000
H    -1.972000000     0.475000000    -6.811000000
H    -2.650000000    -0.073000000    -8.048000000
O     4.918000000    -1.954000000     0.323000000
H     4.405000000    -2.069000000     1.123000000
H     4.552000000    -1.169000000    -0.085000000
O    -1.304000000    -2.330000000    -4.877000000
H    -1.732000000    -2.593000000    -5.691000000
H    -1.898000000    -1.687000000    -4.490000000
O    -3.218000000     3.086000000     5.363000000
H    -2.863000000     2.214000000     5.191000000
H    -3.407000000     3.443000000     4.495000000
O     4.263000000     0.052000000    -1.241000000
H     3.978000000    -0.274000000    -2.095000000
H     5.133000000     0.415000000    -1.402000000
O    -4.234000000     0.677000000     1.726000000
H    -4.160000000     0.253000000     0.871000000
H    -5.138000000     0.991000000     1.760000000
O     1.393000000    -4.294000000     2.491000000
H     1.888000000    -4.574000000     3.260000000
H     1.190000000    -3.373000000     2.659000000
O    -1.015000000    -5.020000000    -2.841000000
H    -1.417000000    -4.264000000    -2.413000000
H    -0.075000000    -4.901000000    -2.705000000
O     2.117000000     5.247000000     2.028000000
H     1.914000000     6.081000000     1.605000000
H     1.793000000     4.584000000     1.418000000
O    -5.019000000    -0.686000000    -0.596000000
H    -4.836000000    -1.025000000    -1.472000000
H    -5.971000000    -0.736000000    -0.513000000
