161
-3012.97252
C    -1.175000000     0.801000000     0.527000000
H    -2.012000000     1.449000000     0.775000000
C    -0.826000000     0.657000000    -0.795000000
H    -1.382000000     1.216000000    -1.543000000
C     0.351000000    -0.018000000    -1.134000000
C     0.645000000    -0.297000000    -2.555000000
H     0.762000000     0.677000000    -3.035000000
H     1.595000000    -0.797000000    -2.755000000
H    -0.196000000    -0.757000000    -3.077000000
C     1.196000000    -0.552000000    -0.212000000
H     2.061000000    -1.138000000    -0.515000000
C     0.825000000    -0.494000000     1.134000000
H     1.526000000    -0.824000000     1.896000000
C    -0.403000000     0.102000000     1.486000000
C    -0.892000000    -0.026000000     2.912000000
O    -0.071000000    -0.329000000     3.764000000
O    -2.004000000     0.322000000     3.131000000
O    -2.788000000     2.828000000     2.732000000
H    -3.443000000     2.623000000     2.065000000
H    -2.349000000     1.994000000     2.901000000
O     6.037000000    -2.666000000    -1.270000000
H     6.206000000    -2.678000000    -2.212000000
H     6.846000000    -2.329000000    -0.886000000
O     3.222000000     0.260000000     6.763000000
H     3.937000000    -0.235000000     7.163000000
H     3.313000000     1.143000000     7.123000000
O    -0.796000000     1.310000000    -5.476000000
H    -1.581000000     1.143000000    -4.954000000
H    -0.278000000     1.913000000    -4.943000000
O    -5.959000000    -2.120000000     4.844000000
H    -5.282000000    -1.994000000     4.179000000
H    -5.485000000    -2.439000000     5.612000000
O     3.576000000    -3.398000000     2.556000000
H     4.334000000    -3.220000000     1.999000000
H     3.630000000    -2.742000000     3.251000000
O    -4.205000000    -0.610000000    -2.624000000
H    -5.138000000    -0.822000000    -2.644000000
H    -3.889000000    -0.836000000    -3.498000000
O     4.888000000     3.488000000    -5.120000000
H     4.696000000     2.964000000    -4.342000000
H     4.936000000     2.850000000    -5.832000000
O    -2.931000000    -3.081000000     4.762000000
H    -2.964000000    -2.755000000     3.862000000
H    -2.646000000    -2.327000000     5.278000000
O    -4.085000000     4.135000000    -0.174000000
H    -4.243000000     4.639000000     0.624000000
H    -4.617000000     3.347000000    -0.069000000
O    -2.878000000    -4.996000000    -1.653000000
H    -2.445000000    -5.617000000    -1.068000000
H    -2.322000000    -4.217000000    -1.630000000
O     4.333000000    -4.993000000    -2.161000000
H     4.355000000    -4.037000000    -2.192000000
H     3.698000000    -5.196000000    -1.474000000
O     2.826000000    -5.123000000    -4.947000000
H     2.051000000    -5.633000000    -4.712000000
H     3.257000000    -4.943000000    -4.112000000
O     2.960000000     1.615000000    -0.615000000
H     2.254000000     0.990000000    -0.453000000
H     3.762000000     1.103000000    -0.510000000
O    -5.301000000    -0.904000000     0.704000000
H    -6.081000000    -1.453000000     0.623000000
H    -5.477000000    -0.153000000     0.138000000
O    -0.780000000     2.803000000     5.383000000
H    -1.097000000     1.947000000     5.098000000
H     0.142000000     2.814000000     5.128000000
O     2.229000000    -4.454000000    -0.810000000
H     2.109000000    -4.919000000     0.018000000
H     1.616000000    -3.720000000    -0.764000000
O    -3.162000000    -1.213000000    -5.186000000
H    -2.384000000    -1.611000000    -4.796000000
H    -2.949000000    -1.135000000    -6.116000000
O    -3.440000000     2.960000000     5.800000000
H    -3.937000000     2.440000000     5.168000000
H    -2.624000000     3.173000000     5.347000000
O    -1.550000000     5.792000000    -1.808000000
H    -1.702000000     4.996000000    -2.318000000
H    -1.715000000     6.506000000    -2.424000000
O    -0.284000000     3.320000000    -3.137000000
H     0.354000000     3.278000000    -2.425000000
H     0.077000000     3.964000000    -3.745000000
O     1.598000000     1.458000000     4.548000000
H     2.119000000     1.013000000     5.216000000
H     0.995000000     0.786000000     4.228000000
O    -0.468000000    -3.575000000     7.511000000
H     0.010000000    -3.553000000     6.683000000
H     0.203000000    -3.434000000     8.179000000
O     3.768000000    -0.904000000    -5.678000000
H     4.314000000    -1.154000000    -6.423000000
H     2.903000000    -1.258000000    -5.884000000
O     2.244000000     4.413000000     2.041000000
H     1.333000000     4.616000000     2.251000000
H     2.335000000     3.483000000     2.244000000
O     3.868000000    -2.194000000     5.028000000
H     3.911000000    -1.391000000     4.509000000
H     4.685000000    -2.203000000     5.525000000
O    -0.726000000    -4.791000000     3.391000000
H    -1.143000000    -4.550000000     2.564000000
H    -1.135000000    -4.219000000     4.040000000
O    -1.719000000    -3.732000000     1.083000000
H    -2.662000000    -3.889000000     1.140000000
H    -1.632000000    -3.022000000     0.447000000
O    -2.418000000    -2.195000000    -0.958000000
H    -2.171000000    -1.275000000    -0.868000000
H    -3.330000000    -2.171000000    -1.247000000
O     1.565000000    -5.138000000     1.855000000
H     2.227000000    -4.501000000     2.123000000
H     0.807000000    -4.941000000     2.406000000
O    -1.824000000    -0.985000000     5.738000000
H    -1.563000000    -0.739000000     4.851000000
H    -1.100000000    -0.693000000     6.291000000
O    -1.512000000    -0.750000000    -7.396000000
H    -1.359000000     0.104000000    -6.992000000
H    -0.645000000    -1.038000000    -7.683000000
O    -0.424000000     4.593000000     2.681000000
H    -0.657000000     5.191000000     1.971000000
H    -1.228000000     4.104000000     2.857000000
O     0.228000000    -5.435000000    -2.799000000
H     0.912000000    -5.415000000    -2.129000000
H    -0.284000000    -6.218000000    -2.595000000
O     1.456000000     3.853000000    -0.968000000
H     1.976000000     3.176000000    -0.535000000
H     1.110000000     4.384000000    -0.250000000
O     0.442000000    -0.101000000     7.163000000
H     0.828000000    -0.242000000     8.027000000
H     1.193000000    -0.020000000     6.575000000
O     1.237000000    -1.255000000    -5.686000000
H     0.658000000    -0.664000000    -6.167000000
H     0.653000000    -1.925000000    -5.331000000
O    -5.139000000     1.072000000     4.640000000
H    -4.587000000     0.416000000     4.213000000
H    -5.825000000     1.260000000     4.000000000
O     2.866000000    -5.173000000     5.114000000
H     3.747000000    -5.339000000     5.449000000
H     2.891000000    -4.265000000     4.814000000
O    -0.588000000    -3.047000000    -5.030000000
H    -1.141000000    -3.690000000    -5.474000000
H    -0.191000000    -3.532000000    -4.306000000
O     2.168000000     1.744000000    -5.892000000
H     2.793000000     1.848000000    -5.174000000
H     1.789000000     0.876000000    -5.756000000
O    -4.272000000    -3.692000000     1.930000000
H    -5.214000000    -3.746000000     1.771000000
H    -4.075000000    -2.756000000     1.894000000
O     3.693000000     0.289000000     3.130000000
H     4.438000000     0.890000000     3.157000000
H     2.941000000     0.830000000     3.371000000
O     3.925000000     1.203000000    -3.852000000
H     4.080000000     0.969000000    -2.937000000
H     3.889000000     0.363000000    -4.311000000
O     5.106000000     0.110000000    -0.767000000
H     5.563000000     0.583000000    -0.072000000
H     5.545000000    -0.740000000    -0.807000000
O    -4.208000000    -1.228000000     3.091000000
H    -4.490000000    -1.168000000     2.179000000
H    -3.483000000    -0.607000000     3.159000000
O     1.024000000    -2.607000000     5.131000000
H     1.960000000    -2.412000000     5.085000000
H     0.607000000    -1.899000000     4.639000000
O    -5.748000000     1.499000000    -1.448000000
H    -5.786000000     2.065000000    -2.220000000
H    -5.087000000     0.841000000    -1.666000000
