161
-3009.23087
C    -1.423000000     0.017000000     0.178000000
H    -2.471000000     0.285000000     0.284000000
C    -0.719000000     0.406000000    -0.934000000
H    -1.298000000     0.789000000    -1.771000000
C     0.663000000     0.340000000    -1.028000000
C     1.307000000     0.809000000    -2.297000000
H     1.046000000     1.869000000    -2.341000000
H     2.381000000     0.788000000    -2.099000000
H     0.862000000     0.321000000    -3.166000000
C     1.375000000    -0.233000000     0.020000000
H     2.458000000    -0.298000000    -0.037000000
C     0.694000000    -0.697000000     1.172000000
H     1.139000000    -1.086000000     2.085000000
C    -0.740000000    -0.599000000     1.265000000
C    -1.534000000    -0.776000000     2.548000000
O    -1.042000000    -1.384000000     3.510000000
O    -2.702000000    -0.552000000     2.615000000
O    -2.438000000     0.725000000     7.718000000
H    -2.759000000    -0.105000000     8.072000000
H    -1.592000000     0.508000000     7.328000000
O    -0.663000000     3.549000000    -4.800000000
H    -0.689000000     3.001000000    -5.585000000
H    -1.581000000     3.663000000    -4.557000000
O    -5.198000000     0.740000000    -3.419000000
H    -5.183000000     1.666000000    -3.179000000
H    -4.777000000     0.708000000    -4.278000000
O     7.410000000     1.278000000     1.300000000
H     7.119000000     2.172000000     1.479000000
H     6.620000000     0.746000000     1.396000000
O    -1.528000000    -4.397000000     2.967000000
H    -2.155000000    -4.515000000     3.681000000
H    -0.882000000    -3.782000000     3.315000000
O    -3.815000000     1.643000000     2.308000000
H    -4.502000000     1.318000000     1.725000000
H    -3.367000000     0.854000000     2.613000000
O    -5.021000000    -2.236000000     2.433000000
H    -4.120000000    -1.915000000     2.458000000
H    -5.115000000    -2.620000000     1.561000000
O     4.718000000     1.746000000     2.744000000
H     4.745000000     1.117000000     2.023000000
H     3.816000000     1.706000000     3.063000000
O    -6.618000000    -1.297000000    -1.479000000
H    -6.101000000    -2.022000000    -1.127000000
H    -6.189000000    -1.075000000    -2.305000000
O    -2.837000000    -3.715000000     6.259000000
H    -2.051000000    -3.447000000     6.736000000
H    -3.086000000    -2.941000000     5.754000000
O    -0.928000000     5.078000000     1.379000000
H    -0.753000000     4.450000000     0.677000000
H    -1.707000000     4.736000000     1.817000000
O    -2.916000000    -2.887000000    -3.195000000
H    -3.335000000    -3.474000000    -2.567000000
H    -2.939000000    -3.366000000    -4.023000000
O     3.452000000    -2.630000000     0.446000000
H     3.008000000    -2.284000000    -0.329000000
H     3.360000000    -3.579000000     0.371000000
O     2.195000000     1.464000000     3.972000000
H     1.478000000     2.097000000     3.924000000
H     2.710000000     1.744000000     4.729000000
O    -0.958000000     1.060000000    -6.417000000
H    -1.742000000     0.932000000    -6.952000000
H    -1.089000000     0.488000000    -5.661000000
O    -3.397000000     4.395000000     2.763000000
H    -3.417000000     3.461000000     2.554000000
H    -3.708000000     4.444000000     3.667000000
O     5.180000000    -0.509000000     0.982000000
H     4.459000000    -1.041000000     1.318000000
H     5.822000000    -1.147000000     0.668000000
O     2.880000000     4.791000000     0.067000000
H     2.948000000     3.900000000     0.409000000
H     2.285000000     4.716000000    -0.679000000
O     3.517000000    -2.281000000     6.053000000
H     3.090000000    -1.588000000     6.557000000
H     3.229000000    -2.134000000     5.152000000
O     3.183000000    -2.171000000     3.037000000
H     3.826000000    -2.736000000     3.465000000
H     3.183000000    -2.458000000     2.123000000
O     1.433000000     4.094000000    -7.008000000
H     1.202000000     3.817000000    -6.121000000
H     2.209000000     4.643000000    -6.892000000
O    -3.083000000    -1.399000000     5.251000000
H    -3.247000000    -0.498000000     5.526000000
H    -2.835000000    -1.327000000     4.329000000
O    -0.800000000    -2.970000000    -1.068000000
H    -0.796000000    -2.082000000    -0.712000000
H    -1.440000000    -2.940000000    -1.780000000
O     3.300000000    -1.397000000    -4.571000000
H     3.251000000    -0.471000000    -4.333000000
H     4.140000000    -1.485000000    -5.021000000
O     0.822000000    -2.726000000     4.779000000
H     1.270000000    -2.783000000     3.935000000
H     0.088000000    -2.131000000     4.622000000
O    -6.342000000     0.526000000     0.798000000
H    -6.175000000    -0.014000000     0.026000000
H    -6.797000000    -0.058000000     1.405000000
O    -0.195000000    -0.259000000     5.783000000
H     0.672000000     0.073000000     5.554000000
H    -0.588000000    -0.502000000     4.945000000
O     1.938000000    -2.574000000    -2.020000000
H     2.025000000    -2.656000000    -2.969000000
H     0.994000000    -2.520000000    -1.870000000
O     3.900000000     1.184000000    -4.146000000
H     3.708000000     1.851000000    -3.486000000
H     4.829000000     0.989000000    -4.025000000
O    -0.020000000     3.281000000     4.909000000
H    -0.918000000     3.042000000     5.138000000
H     0.310000000     3.742000000     5.680000000
O    -0.224000000     3.372000000    -0.811000000
H    -0.181000000     2.456000000    -1.085000000
H    -0.770000000     3.795000000    -1.474000000
O    -2.126000000    -5.931000000     0.784000000
H    -2.196000000    -5.447000000     1.606000000
H    -1.248000000    -5.729000000     0.461000000
O    -0.218000000    -4.915000000     5.872000000
H    -1.128000000    -4.970000000     5.579000000
H     0.155000000    -4.196000000     5.361000000
O    -0.439000000    -2.211000000     7.518000000
H    -0.252000000    -1.456000000     6.961000000
H     0.416000000    -2.616000000     7.667000000
O    -2.123000000    -0.739000000    -4.947000000
H    -2.492000000    -1.268000000    -4.240000000
H    -2.885000000    -0.426000000    -5.434000000
O     1.423000000     5.005000000    -3.888000000
H     1.754000000     5.543000000    -4.606000000
H     0.650000000     4.570000000    -4.250000000
O    -5.959000000    -2.945000000     4.786000000
H    -5.574000000    -2.762000000     3.929000000
H    -6.839000000    -3.267000000     4.590000000
O     0.434000000    -5.234000000    -0.358000000
H     0.080000000    -4.347000000    -0.418000000
H     1.102000000    -5.272000000    -1.043000000
O    -5.378000000    -3.182000000    -0.210000000
H    -4.712000000    -3.554000000    -0.789000000
H    -5.590000000    -3.890000000     0.398000000
O     3.656000000     3.452000000    -2.695000000
H     4.387000000     4.043000000    -2.876000000
H     2.884000000     3.920000000    -3.013000000
O     3.223000000     1.426000000    -7.281000000
H     2.417000000     1.333000000    -7.789000000
H     2.932000000     1.424000000    -6.369000000
O    -4.830000000     4.130000000    -0.913000000
H    -5.352000000     4.679000000    -0.328000000
H    -5.349000000     4.071000000    -1.715000000
O     1.476000000    -3.643000000    -4.860000000
H     0.805000000    -3.032000000    -5.165000000
H     2.254000000    -3.099000000    -4.732000000
O     4.979000000    -1.052000000    -2.482000000
H     4.875000000    -1.991000000    -2.329000000
H     4.247000000    -0.820000000    -3.053000000
O    -4.116000000    -5.365000000     4.153000000
H    -4.560000000    -6.006000000     4.708000000
H    -3.982000000    -4.607000000     4.723000000
O    -5.897000000     0.136000000     4.594000000
H    -5.467000000     0.423000000     3.788000000
H    -5.820000000    -0.818000000     4.579000000
O    -2.477000000     4.456000000    -1.921000000
H    -3.182000000     3.944000000    -1.525000000
H    -2.894000000     5.277000000    -2.182000000
O     4.267000000     2.202000000    -0.472000000
H     3.973000000     2.757000000    -1.195000000
H     4.463000000     1.359000000    -0.882000000
