161
-3062.00991
C    -1.454000000     0.439000000     0.086000000
H    -2.438000000     0.902000000     0.087000000
C    -0.687000000     0.585000000    -1.025000000
H    -1.025000000     1.038000000    -1.953000000
C     0.641000000     0.089000000    -1.036000000
C     1.534000000     0.100000000    -2.213000000
H     2.418000000     0.716000000    -2.035000000
H     1.881000000    -0.914000000    -2.425000000
H     0.949000000     0.437000000    -3.071000000
C     1.208000000    -0.436000000     0.153000000
H     2.233000000    -0.799000000     0.138000000
C     0.376000000    -0.661000000     1.286000000
H     0.788000000    -1.135000000     2.172000000
C    -0.910000000    -0.198000000     1.216000000
C    -1.705000000    -0.162000000     2.514000000
O    -1.087000000    -0.543000000     3.510000000
O    -2.719000000     0.541000000     2.590000000
O    -1.482000000     2.543000000     7.414000000
H    -2.362000000     2.743000000     7.097000000
H    -0.967000000     2.405000000     6.619000000
O    -3.923000000     3.475000000    -3.087000000
H    -4.336000000     2.617000000    -2.988000000
H    -4.655000000     4.089000000    -3.135000000
O     2.532000000    -3.041000000    -6.225000000
H     2.165000000    -2.503000000    -6.926000000
H     2.654000000    -3.903000000    -6.624000000
O    -2.648000000    -2.888000000     0.927000000
H    -3.111000000    -3.442000000     1.555000000
H    -1.721000000    -3.068000000     1.087000000
O    -6.641000000     1.799000000     5.099000000
H    -7.303000000     1.109000000     5.054000000
H    -5.908000000     1.461000000     4.584000000
O    -5.125000000     1.598000000     2.560000000
H    -4.254000000     1.216000000     2.448000000
H    -5.695000000     1.062000000     2.009000000
O     5.723000000    -0.355000000     2.378000000
H     5.500000000    -0.188000000     3.294000000
H     5.661000000    -1.306000000     2.285000000
O     0.028000000     4.553000000     3.706000000
H     0.366000000     4.729000000     2.828000000
H    -0.830000000     4.156000000     3.558000000
O    -2.251000000    -0.296000000     6.343000000
H    -1.971000000    -0.251000000     5.429000000
H    -2.355000000     0.618000000     6.607000000
O     3.937000000     1.533000000    -4.703000000
H     4.603000000     2.220000000    -4.744000000
H     4.334000000     0.846000000    -4.168000000
O    -3.986000000    -2.505000000    -3.154000000
H    -3.924000000    -2.315000000    -4.090000000
H    -3.082000000    -2.663000000    -2.881000000
O     0.178000000    -3.243000000    -3.894000000
H     0.667000000    -2.687000000    -4.500000000
H     0.200000000    -2.768000000    -3.063000000
O     0.231000000     2.457000000     5.457000000
H     1.096000000     2.488000000     5.864000000
H     0.213000000     3.214000000     4.872000000
O    -2.376000000     3.159000000     3.159000000
H    -2.392000000     2.202000000     3.172000000
H    -3.160000000     3.405000000     2.669000000
O     2.224000000    -3.634000000     3.176000000
H     2.223000000    -4.483000000     3.616000000
H     2.476000000    -3.011000000     3.857000000
O     4.999000000    -3.153000000     1.905000000
H     5.597000000    -3.858000000     2.156000000
H     4.222000000    -3.295000000     2.446000000
O    -1.299000000     1.509000000    -7.178000000
H    -1.421000000     2.070000000    -6.412000000
H    -0.524000000     1.862000000    -7.613000000
O     0.170000000     4.301000000    -0.059000000
H    -0.737000000     4.182000000    -0.340000000
H     0.227000000     3.829000000     0.772000000
O     0.073000000    -5.077000000     5.659000000
H     0.079000000    -5.998000000     5.395000000
H    -0.176000000    -4.603000000     4.866000000
O    -1.654000000     2.868000000    -4.569000000
H    -1.242000000     3.711000000    -4.755000000
H    -2.245000000     3.047000000    -3.837000000
O    -6.064000000    -2.320000000     2.979000000
H    -6.020000000    -3.275000000     3.003000000
H    -6.457000000    -2.077000000     3.817000000
O     2.404000000    -4.864000000    -3.909000000
H     1.465000000    -4.769000000    -4.073000000
H     2.791000000    -4.062000000    -4.261000000
O    -1.455000000    -2.359000000    -1.528000000
H    -0.669000000    -1.821000000    -1.431000000
H    -1.876000000    -2.325000000    -0.670000000
O     0.289000000    -0.937000000    -5.699000000
H     0.765000000    -0.123000000    -5.863000000
H     0.291000000    -1.389000000    -6.543000000
O    -0.785000000    -2.902000000     4.389000000
H    -1.637000000    -3.251000000     4.652000000
H    -0.993000000    -2.102000000     3.906000000
O    -6.219000000     4.085000000     2.685000000
H    -6.012000000     4.236000000     1.762000000
H    -5.846000000     3.224000000     2.876000000
O     0.924000000    -0.158000000     5.090000000
H     0.751000000     0.719000000     5.432000000
H     0.240000000    -0.300000000     4.436000000
O     3.733000000    -5.027000000    -1.499000000
H     3.135000000    -5.155000000    -2.235000000
H     3.966000000    -5.914000000    -1.222000000
O     5.594000000    -0.723000000    -3.642000000
H     6.333000000    -0.232000000    -3.282000000
H     5.371000000    -1.355000000    -2.959000000
O     1.857000000     1.340000000    -6.114000000
H     1.579000000     2.251000000    -6.018000000
H     2.555000000     1.234000000    -5.467000000
O     1.753000000     3.142000000    -1.790000000
H     1.325000000     2.317000000    -1.561000000
H     1.436000000     3.765000000    -1.136000000
O    -2.390000000     4.353000000    -1.015000000
H    -3.050000000     4.803000000    -0.486000000
H    -2.895000000     3.779000000    -1.591000000
O     5.112000000    -1.732000000    -6.200000000
H     5.141000000    -1.320000000    -5.336000000
H     4.186000000    -1.929000000    -6.340000000
O    -2.014000000    -1.938000000     8.419000000
H    -1.162000000    -2.350000000     8.273000000
H    -2.041000000    -1.216000000     7.791000000
O     0.471000000    -2.532000000     6.944000000
H     0.547000000    -1.716000000     6.449000000
H     0.441000000    -3.216000000     6.274000000
O    -5.565000000     1.061000000    -3.288000000
H    -5.620000000     0.340000000    -2.661000000
H    -6.473000000     1.235000000    -3.533000000
O     1.614000000     3.959000000    -4.501000000
H     1.023000000     4.656000000    -4.216000000
H     1.548000000     3.294000000    -3.816000000
O     3.764000000     0.107000000     5.161000000
H     3.999000000    -0.566000000     5.801000000
H     2.811000000     0.056000000     5.099000000
O    -5.655000000    -1.125000000    -1.832000000
H    -6.497000000    -1.580000000    -1.813000000
H    -5.130000000    -1.620000000    -2.461000000
O     3.701000000     1.381000000     2.578000000
H     4.482000000     0.993000000     2.185000000
H     3.747000000     1.131000000     3.501000000
O    -5.372000000    -0.402000000     0.864000000
H    -5.271000000    -0.718000000    -0.034000000
H    -5.057000000    -1.123000000     1.409000000
O    -0.824000000    -5.865000000     2.769000000
H    -1.659000000    -6.067000000     2.345000000
H    -0.638000000    -4.962000000     2.512000000
O    -2.876000000    -1.375000000    -5.592000000
H    -2.069000000    -0.972000000    -5.270000000
H    -2.748000000    -1.443000000    -6.539000000
O     5.442000000    -2.750000000    -1.325000000
H     4.672000000    -3.301000000    -1.468000000
H     5.460000000    -2.606000000    -0.379000000
O    -4.655000000    -0.278000000     5.179000000
H    -4.301000000    -0.733000000     4.415000000
H    -3.886000000    -0.056000000     5.704000000
O    -0.157000000    -3.735000000     1.367000000
H     0.380000000    -3.439000000     2.103000000
H     0.470000000    -4.103000000     0.746000000
O     0.150000000     5.661000000    -2.959000000
H    -0.568000000     6.290000000    -3.027000000
H    -0.140000000     5.036000000    -2.295000000
O     1.544000000     2.741000000     1.906000000
H     2.318000000     2.194000000     2.039000000
H     0.815000000     2.122000000     1.875000000
