161
-3063.79728
C    -0.234000000     0.972000000     1.057000000
H    -0.169000000     1.798000000     1.760000000
C     0.191000000     1.300000000    -0.226000000
H     0.553000000     2.307000000    -0.418000000
C     0.401000000     0.275000000    -1.136000000
C     0.944000000     0.584000000    -2.497000000
H     0.184000000     0.160000000    -3.157000000
H     1.053000000     1.645000000    -2.734000000
H     1.921000000     0.115000000    -2.628000000
C     0.046000000    -1.004000000    -0.790000000
H     0.230000000    -1.745000000    -1.564000000
C    -0.452000000    -1.317000000     0.457000000
H    -0.738000000    -2.340000000     0.690000000
C    -0.518000000    -0.349000000     1.448000000
C    -0.995000000    -0.675000000     2.882000000
O    -1.489000000    -1.767000000     3.011000000
O    -0.927000000     0.041000000     3.846000000
O     0.538000000     0.618000000     7.675000000
H     1.367000000     0.163000000     7.821000000
H     0.785000000     1.427000000     7.228000000
O    -1.896000000     3.938000000     6.833000000
H    -1.824000000     3.130000000     6.324000000
H    -2.830000000     4.014000000     7.030000000
O    -2.321000000    -5.866000000     0.909000000
H    -1.594000000    -5.321000000     1.211000000
H    -1.964000000    -6.754000000     0.896000000
O    -3.882000000     1.905000000     1.482000000
H    -4.343000000     2.722000000     1.671000000
H    -3.759000000     1.495000000     2.338000000
O    -0.399000000     5.559000000     4.791000000
H    -1.020000000     5.221000000     5.436000000
H    -0.096000000     4.782000000     4.321000000
O    -1.390000000     4.784000000     1.414000000
H    -1.868000000     4.012000000     1.718000000
H    -0.473000000     4.510000000     1.402000000
O     3.123000000    -2.174000000    -4.619000000
H     3.786000000    -2.632000000    -5.136000000
H     3.323000000    -2.407000000    -3.713000000
O    -0.498000000    -4.043000000    -2.873000000
H    -0.364000000    -4.990000000    -2.838000000
H    -0.486000000    -3.834000000    -3.807000000
O     2.670000000     1.350000000     3.657000000
H     2.447000000     0.493000000     4.021000000
H     2.650000000     1.220000000     2.709000000
O    -3.783000000     1.717000000    -2.723000000
H    -3.700000000     0.785000000    -2.521000000
H    -4.603000000     1.784000000    -3.213000000
O    -1.418000000     2.447000000     4.672000000
H    -1.340000000     1.523000000     4.432000000
H    -0.533000000     2.702000000     4.933000000
O     2.206000000    -3.335000000     2.402000000
H     1.322000000    -3.660000000     2.572000000
H     2.611000000    -3.280000000     3.267000000
O    -1.077000000     5.907000000    -2.680000000
H    -0.632000000     5.116000000    -2.985000000
H    -2.004000000     5.670000000    -2.666000000
O    -1.462000000     3.355000000    -3.196000000
H    -2.038000000     2.590000000    -3.207000000
H    -0.582000000     2.993000000    -3.305000000
O     1.058000000     2.809000000     5.533000000
H     1.432000000     3.605000000     5.913000000
H     1.750000000     2.467000000     4.967000000
O     0.170000000     1.485000000    -6.777000000
H     0.290000000     2.060000000    -7.533000000
H     0.520000000     1.984000000    -6.039000000
O    -3.358000000    -0.795000000    -5.243000000
H    -3.043000000    -1.533000000    -5.765000000
H    -3.625000000    -1.186000000    -4.412000000
O    -2.507000000     1.809000000    -5.998000000
H    -1.562000000     1.758000000    -6.144000000
H    -2.737000000     0.958000000    -5.624000000
O    -0.555000000    -3.580000000     7.147000000
H    -1.163000000    -2.918000000     6.819000000
H    -0.265000000    -4.048000000     6.364000000
O    -3.601000000     4.541000000    -1.041000000
H    -3.116000000     3.856000000    -1.501000000
H    -3.445000000     4.363000000    -0.114000000
O    -4.143000000    -3.991000000     4.720000000
H    -4.312000000    -4.932000000     4.685000000
H    -4.993000000    -3.588000000     4.544000000
O     1.187000000    -4.702000000    -0.445000000
H     0.684000000    -4.112000000    -1.006000000
H     2.081000000    -4.361000000    -0.479000000
O    -2.999000000    -4.633000000    -1.575000000
H    -2.151000000    -4.505000000    -2.000000000
H    -2.784000000    -4.827000000    -0.663000000
O     2.105000000    -4.222000000    -5.994000000
H     1.970000000    -3.370000000    -5.580000000
H     1.232000000    -4.614000000    -6.025000000
O    -2.284000000    -1.424000000     5.940000000
H    -3.064000000    -1.954000000     5.776000000
H    -1.999000000    -1.143000000     5.070000000
O     1.393000000    -0.794000000     5.087000000
H     1.349000000    -0.329000000     5.923000000
H     0.583000000    -0.554000000     4.637000000
O     0.265000000    -6.937000000     0.833000000
H     0.449000000    -6.930000000     1.772000000
H     0.814000000    -6.239000000     0.476000000
O     3.883000000    -3.535000000    -2.487000000
H     4.470000000    -4.197000000    -2.852000000
H     3.915000000    -3.681000000    -1.542000000
O     0.334000000    -1.509000000    -5.530000000
H    -0.232000000    -0.738000000    -5.517000000
H     1.220000000    -1.158000000    -5.444000000
O     3.766000000     1.951000000    -1.123000000
H     3.763000000     1.001000000    -1.005000000
H     4.322000000     2.279000000    -0.417000000
O     2.041000000     4.504000000     2.775000000
H     1.839000000     5.414000000     2.991000000
H     2.662000000     4.562000000     2.049000000
O    -2.023000000     0.431000000     7.987000000
H    -2.396000000    -0.259000000     7.437000000
H    -1.112000000     0.499000000     7.702000000
O     3.252000000     4.777000000     0.516000000
H     2.498000000     5.109000000     0.028000000
H     3.999000000     5.255000000     0.157000000
O     2.786000000     3.854000000    -2.964000000
H     2.547000000     4.582000000    -2.390000000
H     2.835000000     3.096000000    -2.381000000
O     3.196000000    -3.134000000     5.412000000
H     3.910000000    -2.935000000     6.018000000
H     2.690000000    -2.323000000     5.363000000
O    -4.427000000    -2.710000000    -0.075000000
H    -5.286000000    -2.475000000    -0.427000000
H    -4.075000000    -3.340000000    -0.704000000
O     4.732000000    -0.667000000    -1.393000000
H     4.453000000    -1.421000000    -1.912000000
H     5.132000000    -1.049000000    -0.612000000
O    -3.993000000    -1.790000000     2.572000000
H    -4.019000000    -2.359000000     1.802000000
H    -3.101000000    -1.881000000     2.906000000
O    -0.449000000    -4.221000000     2.691000000
H    -0.814000000    -4.789000000     3.369000000
H    -0.895000000    -3.383000000     2.815000000
O    -4.150000000     2.565000000     4.312000000
H    -3.227000000     2.360000000     4.463000000
H    -4.264000000     3.440000000     4.682000000
O     1.033000000     3.501000000    -4.947000000
H     1.496000000     3.407000000    -4.115000000
H     1.583000000     4.093000000    -5.461000000
O    -3.472000000    -1.735000000    -2.684000000
H    -2.764000000    -1.763000000    -2.041000000
H    -3.831000000    -2.622000000    -2.683000000
O    -0.706000000    -4.019000000    -5.852000000
H    -0.256000000    -3.176000000    -5.904000000
H    -1.537000000    -3.874000000    -6.304000000
O     3.732000000    -4.027000000     0.372000000
H     4.505000000    -3.551000000     0.677000000
H     3.080000000    -3.890000000     1.060000000
O    -6.131000000    -1.027000000     4.107000000
H    -5.250000000    -0.922000000     3.749000000
H    -6.399000000    -1.904000000     3.832000000
O    -1.779000000    -5.432000000     4.594000000
H    -2.163000000    -4.569000000     4.750000000
H    -2.253000000    -6.016000000     5.187000000
O     1.283000000     5.948000000    -1.398000000
H     1.464000000     6.885000000    -1.466000000
H     0.361000000     5.864000000    -1.640000000
O     2.554000000    -0.343000000     1.411000000
H     1.976000000    -0.181000000     0.665000000
H     2.525000000    -1.292000000     1.534000000
