161
-3032.29260
C    -0.447000000     1.294000000     0.536000000
H    -0.608000000     2.334000000     0.807000000
C     0.614000000     1.165000000    -0.327000000
H     1.136000000     2.012000000    -0.766000000
C     0.962000000    -0.152000000    -0.723000000
C     1.938000000    -0.316000000    -1.864000000
H     2.267000000    -1.350000000    -1.988000000
H     1.432000000    -0.140000000    -2.815000000
H     2.853000000     0.274000000    -1.778000000
C     0.332000000    -1.198000000    -0.153000000
H     0.596000000    -2.225000000    -0.390000000
C    -0.696000000    -1.078000000     0.772000000
H    -1.103000000    -1.963000000     1.254000000
C    -1.162000000     0.220000000     1.102000000
C    -2.359000000     0.346000000     1.900000000
O    -2.886000000    -0.621000000     2.353000000
O    -2.877000000     1.401000000     2.083000000
O    -3.646000000     4.031000000     1.076000000
H    -3.685000000     3.124000000     1.378000000
H    -2.776000000     4.333000000     1.335000000
O    -5.487000000     2.027000000     2.500000000
H    -5.886000000     1.316000000     3.002000000
H    -4.621000000     1.696000000     2.262000000
O     4.746000000    -2.035000000     0.380000000
H     4.555000000    -1.116000000     0.193000000
H     3.893000000    -2.423000000     0.574000000
O     1.368000000     3.748000000    -6.705000000
H     0.947000000     3.070000000    -6.177000000
H     2.305000000     3.568000000    -6.624000000
O    -2.400000000     6.453000000    -0.597000000
H    -3.106000000     5.892000000    -0.917000000
H    -2.762000000     6.871000000     0.184000000
O     4.652000000     1.098000000     0.525000000
H     5.447000000     0.717000000     0.152000000
H     4.555000000     1.938000000     0.076000000
O     0.600000000    -0.130000000    -7.679000000
H     1.533000000    -0.092000000    -7.887000000
H     0.468000000     0.573000000    -7.042000000
O     4.636000000    -3.190000000    -4.935000000
H     4.980000000    -3.740000000    -5.639000000
H     4.749000000    -3.716000000    -4.144000000
O    -2.989000000    -4.240000000    -1.011000000
H    -2.347000000    -4.677000000    -0.452000000
H    -3.812000000    -4.697000000    -0.834000000
O     3.867000000     3.852000000    -0.124000000
H     4.726000000     4.274000000    -0.118000000
H     3.438000000     4.191000000    -0.910000000
O     2.639000000    -0.275000000     1.809000000
H     3.158000000     0.161000000     1.133000000
H     1.736000000    -0.212000000     1.496000000
O    -7.351000000     4.053000000     2.180000000
H    -8.145000000     3.760000000     2.627000000
H    -6.879000000     3.245000000     1.975000000
O    -1.550000000     2.607000000    -2.892000000
H    -1.639000000     1.868000000    -2.289000000
H    -2.380000000     2.629000000    -3.368000000
O    -2.245000000     2.700000000     4.302000000
H    -2.353000000     2.257000000     3.461000000
H    -1.370000000     3.085000000     4.259000000
O    -1.846000000    -3.317000000     3.226000000
H    -2.280000000    -2.621000000     2.733000000
H    -2.288000000    -3.320000000     4.076000000
O     6.335000000     1.366000000    -5.794000000
H     6.874000000     0.621000000    -6.059000000
H     5.831000000     1.043000000    -5.048000000
O    -3.369000000     5.012000000     5.645000000
H    -4.144000000     5.160000000     5.103000000
H    -3.023000000     4.171000000     5.344000000
O     0.417000000     4.044000000    -2.033000000
H    -0.327000000     3.525000000    -2.339000000
H     0.078000000     4.937000000    -1.972000000
O     0.991000000    -5.868000000    -1.715000000
H     0.348000000    -5.585000000    -2.365000000
H     0.514000000    -6.485000000    -1.159000000
O    -1.868000000    -1.286000000    -6.546000000
H    -1.436000000    -1.504000000    -5.720000000
H    -1.152000000    -1.067000000    -7.142000000
O    -3.394000000    -2.764000000    -3.485000000
H    -2.561000000    -2.383000000    -3.763000000
H    -3.219000000    -3.107000000    -2.608000000
O     0.384000000     1.686000000    -5.276000000
H     1.039000000     1.009000000    -5.105000000
H    -0.073000000     1.793000000    -4.442000000
O     3.769000000    -1.117000000     4.035000000
H     4.274000000    -0.306000000     4.093000000
H     3.129000000    -0.952000000     3.343000000
O    -6.986000000    -1.902000000     1.319000000
H    -6.106000000    -1.918000000     1.694000000
H    -7.056000000    -1.040000000     0.909000000
O     2.447000000    -4.087000000    -0.281000000
H     1.770000000    -4.567000000    -0.759000000
H     2.337000000    -4.360000000     0.629000000
O     0.375000000    -2.122000000     4.594000000
H    -0.260000000    -2.702000000     4.172000000
H    -0.105000000    -1.307000000     4.739000000
O    -1.218000000     4.950000000     1.623000000
H    -1.074000000     5.832000000     1.965000000
H    -1.137000000     5.044000000     0.674000000
O     4.468000000    -6.024000000     0.033000000
H     4.841000000    -5.767000000     0.876000000
H     3.870000000    -5.311000000    -0.191000000
O     4.552000000    -4.732000000    -2.616000000
H     5.013000000    -5.032000000    -1.833000000
H     3.693000000    -4.454000000    -2.297000000
O     2.271000000    -1.886000000    -5.203000000
H     2.374000000    -1.298000000    -5.952000000
H     3.100000000    -2.362000000    -5.156000000
O     4.768000000     1.771000000    -2.943000000
H     4.199000000     1.647000000    -3.702000000
H     5.245000000     0.945000000    -2.863000000
O    -1.780000000    -7.464000000     1.691000000
H    -1.393000000    -6.649000000     1.371000000
H    -1.218000000    -8.152000000     1.334000000
O    -2.838000000     1.827000000    -5.368000000
H    -1.968000000     1.444000000    -5.481000000
H    -3.387000000     1.366000000    -6.002000000
O    -7.193000000     0.600000000     0.302000000
H    -6.707000000     1.424000000     0.335000000
H    -8.083000000     0.856000000     0.061000000
O    -4.509000000     2.030000000    -1.101000000
H    -4.190000000     2.446000000    -0.300000000
H    -3.860000000     1.354000000    -1.294000000
O    -4.643000000     1.849000000     5.857000000
H    -5.163000000     2.501000000     5.387000000
H    -4.020000000     1.525000000     5.207000000
O    -0.820000000    -4.823000000     1.319000000
H     0.003000000    -4.366000000     1.493000000
H    -1.376000000    -4.606000000     2.068000000
O    -4.059000000    -1.548000000    -0.162000000
H    -3.766000000    -2.459000000    -0.192000000
H    -3.789000000    -1.238000000     0.702000000
O    -4.922000000    -1.777000000     3.405000000
H    -4.525000000    -2.131000000     4.201000000
H    -4.258000000    -1.188000000     3.047000000
O     1.861000000     5.407000000     1.279000000
H     1.081000000     4.910000000     1.527000000
H     2.473000000     4.746000000     0.957000000
O    -1.312000000    -0.300000000     5.281000000
H    -1.208000000     0.045000000     6.167000000
H    -2.119000000     0.104000000     4.959000000
O     6.837000000    -0.048000000    -0.841000000
H     7.529000000    -0.156000000    -0.188000000
H     6.916000000    -0.820000000    -1.402000000
O    -2.464000000     0.360000000    -1.525000000
H    -1.603000000     0.102000000    -1.194000000
H    -3.074000000    -0.240000000    -1.097000000
O    -0.390000000    -2.491000000    -4.363000000
H     0.545000000    -2.362000000    -4.523000000
H    -0.584000000    -3.345000000    -4.751000000
O     1.626000000    -3.897000000     2.489000000
H     1.707000000    -4.669000000     3.049000000
H     1.706000000    -3.156000000     3.090000000
O    -7.164000000     0.442000000     3.807000000
H    -6.959000000    -0.377000000     3.355000000
H    -8.120000000     0.480000000     3.810000000
O     3.197000000     4.761000000    -2.675000000
H     2.279000000     4.601000000    -2.456000000
H     3.457000000     3.997000000    -3.189000000
O     5.218000000    -0.639000000    -3.841000000
H     4.846000000    -1.408000000    -4.273000000
H     5.987000000    -0.973000000    -3.380000000
