161
-3004.91791
C    -0.275000000     0.953000000     1.080000000
H    -0.341000000     1.796000000     1.763000000
C     0.676000000     1.100000000     0.076000000
H     1.254000000     2.017000000    -0.009000000
C     0.917000000     0.083000000    -0.826000000
C     1.762000000     0.236000000    -2.039000000
H     1.718000000    -0.616000000    -2.721000000
H     1.492000000     1.190000000    -2.497000000
H     2.777000000     0.407000000    -1.675000000
C     0.250000000    -1.066000000    -0.705000000
H     0.390000000    -1.842000000    -1.453000000
C    -0.707000000    -1.228000000     0.363000000
H    -1.358000000    -2.096000000     0.425000000
C    -1.097000000    -0.168000000     1.138000000
C    -2.197000000    -0.225000000     2.130000000
O    -2.635000000    -1.341000000     2.337000000
O    -2.631000000     0.806000000     2.612000000
O    -1.090000000     1.915000000     5.685000000
H    -1.575000000     2.285000000     6.423000000
H    -0.780000000     1.067000000     6.002000000
O    -3.945000000     0.180000000     8.022000000
H    -3.940000000    -0.076000000     7.100000000
H    -4.157000000    -0.626000000     8.493000000
O     4.208000000    -3.716000000    -2.994000000
H     4.873000000    -4.279000000    -3.391000000
H     4.483000000    -2.827000000    -3.217000000
O    -2.077000000     4.952000000     1.544000000
H    -2.066000000     4.246000000     2.189000000
H    -1.175000000     5.273000000     1.525000000
O     0.314000000    -6.647000000     3.063000000
H     0.551000000    -5.890000000     2.528000000
H    -0.518000000    -6.404000000     3.468000000
O     0.935000000    -4.377000000    -6.324000000
H     0.949000000    -3.875000000    -5.509000000
H     0.912000000    -3.714000000    -7.014000000
O    -5.166000000     1.535000000     1.883000000
H    -5.731000000     1.202000000     2.581000000
H    -4.287000000     1.248000000     2.129000000
O    -2.880000000    -2.657000000     5.771000000
H    -2.411000000    -3.402000000     6.148000000
H    -3.356000000    -3.026000000     5.027000000
O     3.176000000     4.166000000     3.580000000
H     2.903000000     3.866000000     2.713000000
H     2.960000000     5.099000000     3.590000000
O     4.789000000     0.943000000     0.903000000
H     5.529000000     0.558000000     0.434000000
H     5.131000000     1.761000000     1.262000000
O    -3.046000000    -4.944000000    -0.429000000
H    -2.381000000    -5.587000000    -0.182000000
H    -3.617000000    -4.883000000     0.337000000
O     5.545000000     3.894000000     1.694000000
H     4.613000000     3.862000000     1.479000000
H     5.938000000     4.391000000     0.976000000
O     3.009000000    -1.336000000     1.237000000
H     3.390000000    -0.560000000     0.829000000
H     2.135000000    -1.058000000     1.512000000
O    -5.716000000     4.212000000     1.135000000
H    -6.592000000     4.493000000     1.400000000
H    -5.680000000     3.285000000     1.372000000
O    -0.879000000     2.866000000    -4.011000000
H    -1.340000000     2.741000000    -3.182000000
H    -1.182000000     2.147000000    -4.565000000
O    -2.218000000     3.241000000     3.561000000
H    -2.638000000     2.421000000     3.301000000
H    -1.795000000     3.039000000     4.395000000
O    -0.883000000    -3.446000000     2.729000000
H    -1.437000000    -2.668000000     2.661000000
H    -1.419000000    -4.082000000     3.202000000
O    -4.315000000     5.066000000     4.546000000
H    -5.082000000     4.550000000     4.297000000
H    -3.575000000     4.594000000     4.167000000
O     0.574000000     4.855000000    -3.213000000
H     0.209000000     4.089000000    -3.655000000
H     0.203000000     4.823000000    -2.331000000
O     2.741000000    -4.040000000    -0.612000000
H     2.750000000    -3.182000000    -0.189000000
H     3.375000000    -3.963000000    -1.325000000
O    -1.426000000    -1.338000000    -5.696000000
H    -1.764000000    -2.185000000    -5.406000000
H    -0.501000000    -1.353000000    -5.451000000
O    -2.018000000    -3.822000000    -4.408000000
H    -1.380000000    -4.140000000    -3.770000000
H    -2.538000000    -3.178000000    -3.927000000
O     2.519000000     3.515000000    -6.434000000
H     3.321000000     3.971000000    -6.689000000
H     2.764000000     3.019000000    -5.652000000
O     3.882000000    -3.004000000    -5.842000000
H     4.749000000    -2.642000000    -6.026000000
H     4.026000000    -3.948000000    -5.775000000
O    -4.672000000    -0.653000000    -0.766000000
H    -4.466000000    -0.375000000     0.127000000
H    -5.315000000    -0.014000000    -1.073000000
O     1.099000000    -2.526000000     4.567000000
H     0.797000000    -1.753000000     5.044000000
H     0.357000000    -2.770000000     4.013000000
O     0.619000000     5.837000000     1.273000000
H     1.244000000     6.188000000     1.908000000
H     0.249000000     6.610000000     0.849000000
O    -6.215000000     3.439000000     4.336000000
H    -6.074000000     2.496000000     4.250000000
H    -6.232000000     3.593000000     5.281000000
O     1.898000000    -1.194000000    -5.442000000
H     2.134000000    -0.358000000    -5.846000000
H     2.452000000    -1.838000000    -5.883000000
O    -4.513000000    -5.361000000     2.009000000
H    -3.809000000    -6.007000000     1.959000000
H    -5.076000000    -5.673000000     2.717000000
O    -0.964000000    -6.997000000    -0.195000000
H    -0.337000000    -6.326000000     0.075000000
H    -0.425000000    -7.683000000    -0.590000000
O    -2.324000000     1.302000000    -5.782000000
H    -1.797000000     0.503000000    -5.794000000
H    -3.222000000     0.999000000    -5.920000000
O    -5.438000000     1.801000000    -1.223000000
H    -5.343000000     2.140000000    -0.333000000
H    -5.083000000     2.492000000    -1.782000000
O    -2.228000000     3.583000000    -1.094000000
H    -2.301000000     3.771000000    -0.158000000
H    -2.146000000     2.630000000    -1.140000000
O    -3.826000000     0.281000000     5.213000000
H    -3.406000000     0.677000000     4.449000000
H    -4.099000000    -0.586000000     4.913000000
O    -2.070000000    -5.285000000     4.300000000
H    -1.645000000    -5.356000000     5.155000000
H    -2.965000000    -5.588000000     4.452000000
O     0.704000000    -5.032000000     0.972000000
H     1.568000000    -4.809000000     0.626000000
H     0.229000000    -4.201000000     0.985000000
O    -2.893000000    -2.487000000    -1.901000000
H    -2.664000000    -3.243000000    -1.361000000
H    -3.472000000    -1.963000000    -1.347000000
O    -5.288000000    -2.052000000     2.436000000
H    -5.259000000    -2.865000000     1.932000000
H    -4.396000000    -1.707000000     2.385000000
O     2.714000000     3.920000000     0.548000000
H     2.071000000     4.521000000     0.927000000
H     2.795000000     4.201000000    -0.364000000
O     3.180000000     0.431000000     4.871000000
H     3.246000000    -0.205000000     4.159000000
H     2.426000000     0.140000000     5.384000000
O     6.609000000    -0.335000000    -0.576000000
H     7.404000000    -0.073000000    -0.111000000
H     6.905000000    -0.989000000    -1.208000000
O    -5.075000000    -4.834000000    -2.424000000
H    -4.280000000    -4.535000000    -1.983000000
H    -5.113000000    -4.314000000    -3.227000000
O    -1.964000000     0.801000000    -1.817000000
H    -2.312000000    -0.009000000    -2.189000000
H    -1.233000000     0.517000000    -1.267000000
O     1.346000000    -3.376000000    -3.599000000
H     1.512000000    -2.728000000    -4.284000000
H     2.145000000    -3.378000000    -3.072000000
O    -6.574000000     0.392000000     3.745000000
H    -6.408000000    -0.278000000     3.082000000
H    -7.405000000     0.133000000     4.145000000
O     3.229000000     4.912000000    -2.587000000
H     2.356000000     4.774000000    -2.954000000
H     3.828000000     4.633000000    -3.279000000
O     6.157000000     1.494000000    -3.391000000
H     6.271000000     0.683000000    -3.888000000
H     5.832000000     1.207000000    -2.537000000
