17
-100.68111
C    -0.679000000     1.140000000    -0.611000000
H    -1.247000000     1.976000000    -1.011000000
C    -1.305000000    -0.020000000    -0.146000000
H    -2.388000000    -0.091000000    -0.213000000
C    -0.589000000    -1.041000000     0.489000000
C    -1.238000000    -2.270000000     1.085000000
H    -0.467000000    -3.040000000     1.156000000
H    -1.604000000    -2.124000000     2.104000000
H    -2.057000000    -2.675000000     0.488000000
C     0.821000000    -0.869000000     0.420000000
H     1.456000000    -1.616000000     0.889000000
C     1.455000000     0.307000000    -0.022000000
H     2.534000000     0.434000000    -0.018000000
C     0.699000000     1.327000000    -0.522000000
C     1.350000000     2.565000000    -1.172000000
O     2.473000000     2.368000000    -1.646000000
O     0.792000000     3.636000000    -1.263000000
