17
-88.09761
C    -0.969000000     0.857000000    -0.565000000
H    -1.703000000     1.482000000    -1.067000000
C     0.296000000     0.852000000    -0.838000000
H     0.575000000     1.550000000    -1.624000000
C     1.194000000    -0.051000000    -0.291000000
C     2.632000000     0.147000000    -0.561000000
H     3.236000000    -0.739000000    -0.355000000
H     2.781000000     0.537000000    -1.570000000
H     2.990000000     0.844000000     0.200000000
C     0.731000000    -1.054000000     0.565000000
H     1.447000000    -1.759000000     0.979000000
C    -0.627000000    -1.033000000     0.821000000
H    -1.025000000    -1.770000000     1.514000000
C    -1.493000000    -0.065000000     0.320000000
C    -2.970000000    -0.014000000     0.691000000
O    -3.367000000    -0.497000000     1.722000000
O    -3.721000000     0.718000000     0.061000000
