17
-95.72739
C     0.101000000     1.345000000     0.706000000
H     0.408000000     2.218000000     1.277000000
C     0.915000000     0.860000000    -0.339000000
H     1.748000000     1.480000000    -0.660000000
C     0.674000000    -0.326000000    -0.961000000
C     1.670000000    -0.884000000    -1.969000000
H     1.937000000    -1.930000000    -1.803000000
H     1.291000000    -0.929000000    -2.992000000
H     2.669000000    -0.455000000    -1.866000000
C    -0.378000000    -1.141000000    -0.543000000
H    -0.536000000    -2.100000000    -1.030000000
C    -1.237000000    -0.677000000     0.480000000
H    -2.137000000    -1.207000000     0.785000000
C    -1.009000000     0.568000000     1.077000000
C    -1.778000000     0.905000000     2.334000000
O    -2.657000000     0.200000000     2.757000000
O    -1.679000000     2.081000000     2.747000000
