17
-90.27111
C    -1.225000000     0.562000000    -0.589000000
H    -2.107000000     1.068000000    -0.974000000
C     0.006000000     0.681000000    -1.099000000
H     0.166000000     1.469000000    -1.830000000
C     1.101000000     0.068000000    -0.522000000
C     2.455000000     0.401000000    -1.104000000
H     2.499000000     0.757000000    -2.135000000
H     2.985000000     1.124000000    -0.479000000
H     3.077000000    -0.477000000    -1.292000000
C     0.946000000    -0.754000000     0.632000000
H     1.827000000    -1.118000000     1.155000000
C    -0.363000000    -0.971000000     1.084000000
H    -0.473000000    -1.500000000     2.027000000
C    -1.463000000    -0.297000000     0.529000000
C    -2.747000000    -0.321000000     1.326000000
O    -2.955000000    -1.011000000     2.327000000
O    -3.723000000     0.314000000     0.937000000
