17
-89.40837
C    -0.241000000    -1.378000000    -0.159000000
H    -0.462000000    -2.395000000    -0.471000000
C     0.336000000    -0.546000000    -1.112000000
H     0.537000000    -0.990000000    -2.084000000
C     0.669000000     0.725000000    -0.751000000
C     1.128000000     1.571000000    -1.847000000
H     1.734000000     2.445000000    -1.596000000
H     1.608000000     0.964000000    -2.618000000
H     0.213000000     1.951000000    -2.305000000
C     0.249000000     1.280000000     0.512000000
H     0.407000000     2.331000000     0.744000000
C    -0.405000000     0.408000000     1.379000000
H    -0.799000000     0.761000000     2.329000000
C    -0.587000000    -0.944000000     1.098000000
C    -1.207000000    -1.826000000     2.076000000
O    -1.824000000    -1.370000000     3.024000000
O    -1.358000000    -2.981000000     1.786000000
