17
-94.19456
C    -0.799000000    -1.122000000    -0.501000000
H    -1.326000000    -1.973000000    -0.924000000
C     0.002000000    -0.279000000    -1.315000000
H     0.082000000    -0.383000000    -2.394000000
C     0.669000000     0.768000000    -0.690000000
C     1.440000000     1.676000000    -1.543000000
H     0.864000000     2.548000000    -1.857000000
H     2.316000000     2.029000000    -0.995000000
H     1.717000000     1.227000000    -2.500000000
C     0.583000000     0.943000000     0.699000000
H     1.125000000     1.746000000     1.191000000
C    -0.062000000     0.039000000     1.493000000
H    -0.051000000     0.168000000     2.572000000
C    -0.881000000    -0.946000000     0.870000000
C    -1.698000000    -1.878000000     1.728000000
O    -1.858000000    -1.701000000     2.916000000
O    -2.130000000    -2.869000000     1.242000000
