17
-92.37298
C    -0.819000000    -0.984000000    -0.803000000
H    -1.290000000    -1.679000000    -1.493000000
C     0.244000000    -0.124000000    -1.237000000
H     0.521000000    -0.106000000    -2.288000000
C     0.936000000     0.626000000    -0.353000000
C     2.244000000     1.246000000    -0.857000000
H     2.367000000     2.184000000    -0.311000000
H     3.116000000     0.590000000    -0.815000000
H     2.106000000     1.621000000    -1.873000000
C     0.572000000     0.782000000     0.978000000
H     1.217000000     1.411000000     1.586000000
C    -0.511000000     0.001000000     1.377000000
H    -0.807000000     0.094000000     2.418000000
C    -1.212000000    -0.819000000     0.513000000
C    -2.533000000    -1.481000000     0.996000000
O    -3.060000000    -1.179000000     2.008000000
O    -3.098000000    -2.181000000     0.157000000
