17
-91.85833
C    -1.198000000    -0.809000000    -0.198000000
H    -2.077000000    -1.402000000    -0.437000000
C    -0.574000000    -0.065000000    -1.207000000
H    -0.907000000    -0.272000000    -2.221000000
C     0.457000000     0.764000000    -0.851000000
C     1.295000000     1.499000000    -1.918000000
H     1.143000000     0.989000000    -2.871000000
H     1.011000000     2.551000000    -1.990000000
H     2.373000000     1.412000000    -1.768000000
C     0.899000000     0.780000000     0.451000000
H     1.771000000     1.416000000     0.577000000
C     0.317000000    -0.043000000     1.455000000
H     0.725000000     0.089000000     2.454000000
C    -0.755000000    -0.872000000     1.140000000
C    -1.340000000    -1.711000000     2.208000000
O    -0.847000000    -1.934000000     3.297000000
O    -2.300000000    -2.393000000     1.876000000
