17
-97.75804
C    -1.020000000    -0.673000000    -0.823000000
H    -1.730000000    -1.145000000    -1.498000000
C     0.175000000    -0.149000000    -1.276000000
H     0.451000000    -0.068000000    -2.324000000
C     1.082000000     0.442000000    -0.407000000
C     2.330000000     1.042000000    -0.919000000
H     2.035000000     1.541000000    -1.845000000
H     2.736000000     1.754000000    -0.197000000
H     3.123000000     0.318000000    -1.118000000
C     0.797000000     0.482000000     0.948000000
H     1.504000000     0.922000000     1.647000000
C    -0.451000000     0.011000000     1.381000000
H    -0.739000000     0.097000000     2.426000000
C    -1.366000000    -0.611000000     0.552000000
C    -2.646000000    -1.146000000     1.023000000
O    -2.965000000    -1.067000000     2.198000000
O    -3.323000000    -1.743000000     0.234000000
