17
-87.54393
C    -0.636000000     0.573000000    -1.213000000
H    -0.941000000     1.053000000    -2.139000000
C     0.591000000     0.925000000    -0.614000000
H     1.171000000     1.649000000    -1.181000000
C     0.990000000     0.394000000     0.545000000
C     2.373000000     0.776000000     1.149000000
H     2.342000000     1.208000000     2.151000000
H     3.086000000    -0.050000000     1.185000000
H     2.860000000     1.504000000     0.495000000
C     0.269000000    -0.647000000     1.119000000
H     0.687000000    -1.007000000     2.056000000
C    -0.904000000    -1.108000000     0.594000000
H    -1.562000000    -1.847000000     1.046000000
C    -1.440000000    -0.430000000    -0.549000000
C    -2.601000000    -0.941000000    -1.371000000
O    -3.519000000    -1.452000000    -0.764000000
O    -2.773000000    -0.605000000    -2.516000000
