17
-94.16028
C    -1.051000000    -0.252000000    -1.005000000
H    -1.776000000    -0.387000000    -1.803000000
C     0.198000000     0.326000000    -1.253000000
H     0.452000000     0.668000000    -2.253000000
C     1.149000000     0.470000000    -0.271000000
C     2.481000000     1.142000000    -0.561000000
H     2.489000000     2.125000000    -0.087000000
H     3.192000000     0.507000000    -0.029000000
H     2.877000000     1.231000000    -1.575000000
C     0.713000000     0.166000000     1.052000000
H     1.413000000     0.197000000     1.883000000
C    -0.558000000    -0.439000000     1.311000000
H    -0.728000000    -0.785000000     2.328000000
C    -1.458000000    -0.633000000     0.278000000
C    -2.781000000    -1.317000000     0.586000000
O    -3.136000000    -1.460000000     1.740000000
O    -3.478000000    -1.558000000    -0.338000000
