17
-89.00122
C    -0.175000000     1.053000000    -1.145000000
H    -0.167000000     1.879000000    -1.851000000
C     0.813000000     1.069000000    -0.088000000
H     1.524000000     1.889000000    -0.137000000
C     0.879000000    -0.022000000     0.818000000
C     1.995000000    -0.027000000     1.866000000
H     2.924000000    -0.550000000     1.631000000
H     2.205000000     0.991000000     2.199000000
H     1.544000000    -0.428000000     2.777000000
C    -0.043000000    -1.095000000     0.774000000
H     0.012000000    -1.911000000     1.490000000
C    -1.114000000    -0.983000000    -0.124000000
H    -1.720000000    -1.885000000    -0.138000000
C    -1.155000000     0.038000000    -1.073000000
C    -2.238000000     0.001000000    -2.101000000
O    -3.012000000    -0.907000000    -2.038000000
O    -2.280000000     0.896000000    -2.859000000
