17
-94.83652
C     0.056000000    -0.622000000     1.295000000
H    -0.039000000    -1.037000000     2.295000000
C    -0.905000000     0.268000000     0.874000000
H    -1.671000000     0.523000000     1.603000000
C    -0.884000000     0.796000000    -0.401000000
C    -1.836000000     1.919000000    -0.813000000
H    -1.509000000     2.838000000    -0.323000000
H    -1.861000000     2.001000000    -1.901000000
H    -2.783000000     1.609000000    -0.365000000
C     0.161000000     0.385000000    -1.259000000
H     0.307000000     0.877000000    -2.217000000
C     1.128000000    -0.504000000    -0.798000000
H     1.906000000    -0.670000000    -1.539000000
C     1.077000000    -1.039000000     0.444000000
C     2.034000000    -2.104000000     0.938000000
O     2.981000000    -2.392000000     0.233000000
O     1.838000000    -2.847000000     1.940000000
