17
-92.78193
C     0.387000000     1.248000000    -0.751000000
H     0.760000000     2.166000000    -1.198000000
C     1.244000000     0.412000000    -0.055000000
H     2.294000000     0.687000000    -0.098000000
C     0.790000000    -0.698000000     0.595000000
C     1.732000000    -1.563000000     1.418000000
H     2.681000000    -1.036000000     1.533000000
H     1.388000000    -1.773000000     2.433000000
H     1.838000000    -2.432000000     0.765000000
C    -0.520000000    -1.076000000     0.564000000
H    -0.865000000    -1.940000000     1.125000000
C    -1.400000000    -0.241000000    -0.074000000
H    -2.469000000    -0.430000000    -0.132000000
C    -0.954000000     0.890000000    -0.781000000
C    -2.006000000     1.708000000    -1.540000000
O    -3.214000000     1.468000000    -1.531000000
O    -1.679000000     2.616000000    -2.267000000
