17
-90.36271
C     0.171000000    -0.047000000    -1.512000000
H     0.257000000    -0.219000000    -2.582000000
C     0.070000000    -1.106000000    -0.646000000
H     0.015000000    -2.097000000    -1.090000000
C     0.055000000    -0.977000000     0.717000000
C    -0.156000000    -2.206000000     1.659000000
H    -1.187000000    -2.328000000     1.998000000
H     0.253000000    -3.083000000     1.152000000
H     0.392000000    -2.146000000     2.601000000
C     0.163000000     0.287000000     1.227000000
H     0.193000000     0.539000000     2.284000000
C     0.098000000     1.408000000     0.446000000
H    -0.074000000     2.407000000     0.838000000
C     0.208000000     1.242000000    -0.907000000
C    -0.069000000     2.444000000    -1.808000000
O    -0.521000000     3.500000000    -1.370000000
O     0.128000000     2.379000000    -3.007000000
