17
-89.31538
C     0.819000000     0.362000000    -1.155000000
H     1.545000000     0.614000000    -1.924000000
C     0.825000000    -0.917000000    -0.538000000
H     1.508000000    -1.727000000    -0.779000000
C    -0.037000000    -1.129000000     0.587000000
C     0.017000000    -2.355000000     1.437000000
H    -0.517000000    -2.338000000     2.390000000
H    -0.633000000    -3.085000000     0.950000000
H     1.062000000    -2.668000000     1.480000000
C    -0.905000000    -0.049000000     0.894000000
H    -1.547000000    -0.139000000     1.766000000
C    -0.849000000     1.206000000     0.330000000
H    -1.550000000     1.959000000     0.684000000
C    -0.008000000     1.376000000    -0.749000000
C     0.064000000     2.584000000    -1.593000000
O    -0.472000000     3.620000000    -1.150000000
O     0.675000000     2.691000000    -2.624000000
