17
-93.52292
C     0.355000000    -0.149000000    -1.425000000
H     0.562000000    -0.384000000    -2.465000000
C    -0.142000000    -1.176000000    -0.624000000
H    -0.301000000    -2.176000000    -1.021000000
C    -0.478000000    -0.926000000     0.716000000
C    -0.861000000    -1.989000000     1.636000000
H     0.078000000    -2.532000000     1.766000000
H    -1.278000000    -1.691000000     2.600000000
H    -1.559000000    -2.614000000     1.076000000
C    -0.402000000     0.369000000     1.240000000
H    -0.689000000     0.522000000     2.277000000
C     0.124000000     1.391000000     0.425000000
H     0.282000000     2.402000000     0.791000000
C     0.497000000     1.184000000    -0.917000000
C     1.097000000     2.280000000    -1.797000000
O     1.468000000     3.314000000    -1.293000000
O     1.251000000     2.179000000    -2.989000000
