17
-93.17575
C     0.093000000     1.375000000    -0.596000000
H     0.254000000     2.390000000    -0.952000000
C     1.164000000     0.753000000     0.125000000
H     2.175000000     1.146000000     0.189000000
C     0.899000000    -0.535000000     0.689000000
C     2.021000000    -1.380000000     1.232000000
H     1.753000000    -2.167000000     1.939000000
H     2.436000000    -1.956000000     0.402000000
H     2.816000000    -0.759000000     1.650000000
C    -0.377000000    -1.048000000     0.624000000
H    -0.619000000    -2.083000000     0.855000000
C    -1.423000000    -0.470000000    -0.058000000
H    -2.404000000    -0.933000000    -0.128000000
C    -1.180000000     0.808000000    -0.664000000
C    -2.224000000     1.427000000    -1.520000000
O    -3.340000000     0.937000000    -1.681000000
O    -2.039000000     2.498000000    -2.110000000
