17
-94.29303
C    -0.622000000    -1.108000000    -0.760000000
H    -0.976000000    -2.015000000    -1.244000000
C    -0.712000000    -0.979000000     0.618000000
H    -1.198000000    -1.779000000     1.169000000
C    -0.051000000     0.071000000     1.232000000
C     0.058000000     0.264000000     2.696000000
H     0.533000000    -0.615000000     3.135000000
H     0.532000000     1.213000000     2.958000000
H    -0.952000000     0.300000000     3.108000000
C     0.608000000     1.054000000     0.461000000
H     1.082000000     1.934000000     0.887000000
C     0.587000000     0.947000000    -0.946000000
H     1.059000000     1.764000000    -1.485000000
C    -0.054000000    -0.137000000    -1.543000000
C    -0.017000000    -0.249000000    -3.015000000
O     0.698000000     0.479000000    -3.650000000
O    -0.583000000    -1.141000000    -3.618000000
