17
-90.86276
C    -1.033000000    -0.432000000    -1.017000000
H    -1.856000000    -0.839000000    -1.600000000
C    -1.271000000    -0.236000000     0.376000000
H    -2.241000000    -0.483000000     0.799000000
C    -0.209000000     0.235000000     1.233000000
C    -0.300000000     0.182000000     2.706000000
H    -1.220000000     0.622000000     3.097000000
H    -0.205000000    -0.828000000     3.112000000
H     0.502000000     0.795000000     3.121000000
C     0.998000000     0.508000000     0.605000000
H     1.804000000     0.825000000     1.261000000
C     1.239000000     0.321000000    -0.703000000
H     2.157000000     0.704000000    -1.141000000
C     0.219000000    -0.223000000    -1.562000000
C     0.386000000    -0.289000000    -3.003000000
O     1.451000000     0.018000000    -3.551000000
O    -0.428000000    -0.875000000    -3.741000000
