17
-93.38085
C    -0.576000000    -0.579000000    -1.194000000
H    -1.167000000    -0.876000000    -2.056000000
C    -0.791000000    -1.072000000     0.052000000
H    -1.470000000    -1.902000000     0.230000000
C    -0.187000000    -0.427000000     1.118000000
C    -0.320000000    -1.018000000     2.463000000
H    -0.616000000    -2.063000000     2.355000000
H     0.625000000    -1.125000000     2.999000000
H    -1.005000000    -0.471000000     3.115000000
C     0.591000000     0.734000000     0.978000000
H     1.123000000     1.249000000     1.774000000
C     0.756000000     1.215000000    -0.314000000
H     1.372000000     2.088000000    -0.512000000
C     0.185000000     0.547000000    -1.424000000
C     0.406000000     1.107000000    -2.812000000
O     1.056000000     2.086000000    -2.962000000
O     0.023000000     0.501000000    -3.805000000
