17
-96.00292
C    -0.533000000    -0.576000000    -1.307000000
H    -1.029000000    -1.061000000    -2.144000000
C    -0.730000000    -1.119000000    -0.051000000
H    -1.202000000    -2.098000000    -0.012000000
C    -0.216000000    -0.455000000     1.110000000
C    -0.456000000    -1.076000000     2.485000000
H     0.498000000    -1.532000000     2.758000000
H    -0.720000000    -0.310000000     3.217000000
H    -1.343000000    -1.711000000     2.439000000
C     0.433000000     0.748000000     1.021000000
H     0.802000000     1.294000000     1.886000000
C     0.648000000     1.287000000    -0.279000000
H     1.262000000     2.179000000    -0.371000000
C     0.181000000     0.610000000    -1.419000000
C     0.647000000     1.162000000    -2.778000000
O     1.323000000     2.207000000    -2.879000000
O     0.440000000     0.447000000    -3.683000000
