17
-94.00723
C     0.292000000    -1.370000000    -0.491000000
H     0.371000000    -2.347000000    -0.960000000
C    -0.903000000    -0.931000000     0.119000000
H    -1.799000000    -1.544000000     0.070000000
C    -1.079000000     0.335000000     0.672000000
C    -2.443000000     0.941000000     0.765000000
H    -3.111000000     0.260000000     1.296000000
H    -2.380000000     1.911000000     1.263000000
H    -2.813000000     1.078000000    -0.253000000
C     0.026000000     1.207000000     0.598000000
H    -0.110000000     2.258000000     0.840000000
C     1.232000000     0.781000000     0.026000000
H     2.041000000     1.499000000    -0.076000000
C     1.423000000    -0.562000000    -0.377000000
C     2.730000000    -1.045000000    -0.952000000
O     3.658000000    -0.259000000    -1.238000000
O     2.867000000    -2.207000000    -1.294000000
