17
-92.02397
C     0.126000000    -1.476000000    -0.415000000
H    -0.029000000    -2.482000000    -0.795000000
C    -1.045000000    -0.715000000    -0.354000000
H    -2.040000000    -1.129000000    -0.491000000
C    -0.957000000     0.669000000    -0.055000000
C    -2.204000000     1.495000000     0.125000000
H    -2.354000000     1.901000000     1.127000000
H    -2.439000000     2.333000000    -0.535000000
H    -3.116000000     0.905000000     0.018000000
C     0.188000000     1.251000000     0.332000000
H     0.201000000     2.282000000     0.677000000
C     1.300000000     0.490000000     0.352000000
H     2.204000000     1.022000000     0.638000000
C     1.320000000    -0.896000000     0.001000000
C     2.646000000    -1.674000000    -0.163000000
O     3.667000000    -1.102000000     0.046000000
O     2.540000000    -2.874000000    -0.511000000
