17
-89.73700
C    -1.082000000    -0.932000000    -0.630000000
H    -1.832000000    -1.460000000    -1.213000000
C    -1.060000000     0.478000000    -0.733000000
H    -1.771000000     1.019000000    -1.353000000
C    -0.077000000     1.250000000    -0.049000000
C     0.061000000     2.766000000    -0.313000000
H    -0.472000000     3.263000000     0.500000000
H     1.084000000     3.145000000    -0.263000000
H    -0.441000000     2.971000000    -1.261000000
C     0.859000000     0.621000000     0.737000000
H     1.602000000     1.073000000     1.390000000
C     0.914000000    -0.817000000     0.822000000
H     1.617000000    -1.239000000     1.536000000
C    -0.002000000    -1.576000000     0.101000000
C     0.105000000    -3.094000000     0.255000000
O     1.095000000    -3.595000000     0.798000000
O    -0.601000000    -3.877000000    -0.329000000
