17
-95.91730
C    -0.058000000    -1.369000000    -0.376000000
H    -0.225000000    -2.378000000    -0.744000000
C    -0.841000000    -0.359000000    -0.914000000
H    -1.620000000    -0.563000000    -1.644000000
C    -0.615000000     0.903000000    -0.481000000
C    -1.482000000     1.989000000    -1.151000000
H    -0.859000000     2.613000000    -1.796000000
H    -2.162000000     1.489000000    -1.843000000
H    -1.956000000     2.611000000    -0.388000000
C     0.365000000     1.210000000     0.477000000
H     0.661000000     2.225000000     0.726000000
C     1.046000000     0.183000000     1.103000000
H     1.766000000     0.540000000     1.835000000
C     0.796000000    -1.155000000     0.711000000
C     1.543000000    -2.330000000     1.337000000
O     2.402000000    -2.157000000     2.165000000
O     1.242000000    -3.458000000     0.990000000
