17
-95.29781
C    -0.056000000    -1.440000000     0.250000000
H    -0.023000000    -2.520000000     0.377000000
C    -1.118000000    -0.658000000    -0.145000000
H    -2.046000000    -1.205000000    -0.291000000
C    -0.950000000     0.703000000    -0.458000000
C    -2.144000000     1.561000000    -0.846000000
H    -2.884000000     0.921000000    -1.330000000
H    -2.560000000     2.068000000     0.027000000
H    -1.846000000     2.351000000    -1.539000000
C     0.348000000     1.224000000    -0.378000000
H     0.552000000     2.279000000    -0.548000000
C     1.427000000     0.439000000     0.167000000
H     2.367000000     0.948000000     0.364000000
C     1.168000000    -0.825000000     0.579000000
C     2.316000000    -1.706000000     1.109000000
O     3.343000000    -1.224000000     1.415000000
O     2.108000000    -2.924000000     1.249000000
