17
-87.70929
C     0.082000000    -1.429000000     0.470000000
H    -0.009000000    -2.483000000     0.721000000
C    -1.017000000    -0.807000000    -0.125000000
H    -1.927000000    -1.394000000    -0.217000000
C    -0.966000000     0.528000000    -0.471000000
C    -2.156000000     1.185000000    -1.192000000
H    -3.064000000     0.897000000    -0.658000000
H    -2.180000000     2.277000000    -1.175000000
H    -2.171000000     0.771000000    -2.202000000
C     0.137000000     1.288000000    -0.237000000
H     0.181000000     2.347000000    -0.478000000
C     1.179000000     0.669000000     0.340000000
H     2.040000000     1.278000000     0.603000000
C     1.214000000    -0.690000000     0.676000000
C     2.527000000    -1.318000000     1.203000000
O     3.471000000    -0.627000000     1.326000000
O     2.663000000    -2.491000000     1.414000000
