17
-86.86656
C    -1.055000000    -0.933000000    -0.594000000
H    -1.955000000    -1.416000000    -0.966000000
C    -0.994000000     0.489000000    -0.731000000
H    -1.780000000     1.116000000    -1.144000000
C     0.152000000     1.167000000    -0.275000000
C     0.209000000     2.686000000    -0.440000000
H     0.459000000     3.092000000     0.543000000
H     0.981000000     2.989000000    -1.151000000
H    -0.704000000     3.182000000    -0.775000000
C     1.204000000     0.482000000     0.407000000
H     1.967000000     1.128000000     0.833000000
C     0.989000000    -0.865000000     0.757000000
H     1.680000000    -1.439000000     1.370000000
C    -0.123000000    -1.556000000     0.191000000
C    -0.288000000    -3.000000000     0.527000000
O     0.371000000    -3.448000000     1.419000000
O    -1.108000000    -3.675000000     0.034000000
