17
-83.19273
C    -1.083000000    -0.943000000    -0.370000000
H    -1.923000000    -1.610000000    -0.547000000
C    -1.111000000     0.422000000    -0.538000000
H    -2.007000000     0.836000000    -0.996000000
C    -0.009000000     1.195000000    -0.246000000
C    -0.007000000     2.695000000    -0.430000000
H     0.299000000     2.907000000    -1.456000000
H    -1.026000000     2.958000000    -0.138000000
H     0.561000000     3.296000000     0.284000000
C     1.119000000     0.579000000     0.233000000
H     2.024000000     1.158000000     0.399000000
C     1.165000000    -0.767000000     0.431000000
H     2.061000000    -1.212000000     0.858000000
C     0.057000000    -1.515000000     0.281000000
C    -0.030000000    -2.959000000     0.679000000
O     0.919000000    -3.515000000     1.133000000
O    -1.015000000    -3.520000000     0.431000000
