17
-95.55699
C    -0.517000000    -1.230000000    -0.437000000
H    -1.074000000    -2.053000000    -0.878000000
C    -0.338000000    -0.140000000    -1.246000000
H    -0.718000000     0.019000000    -2.252000000
C     0.173000000     1.027000000    -0.697000000
C     0.439000000     2.211000000    -1.592000000
H    -0.406000000     2.903000000    -1.585000000
H     1.307000000     2.750000000    -1.208000000
H     0.466000000     1.945000000    -2.651000000
C     0.621000000     0.943000000     0.646000000
H     1.062000000     1.747000000     1.230000000
C     0.493000000    -0.228000000     1.419000000
H     0.775000000    -0.176000000     2.467000000
C    -0.177000000    -1.297000000     0.889000000
C    -0.578000000    -2.516000000     1.723000000
O    -0.182000000    -2.579000000     2.908000000
O    -1.350000000    -3.318000000     1.260000000
