17
-96.14125
C    -0.710000000    -1.238000000    -0.256000000
H    -1.299000000    -2.136000000    -0.423000000
C    -1.251000000     0.021000000    -0.198000000
H    -2.337000000     0.059000000    -0.209000000
C    -0.495000000     1.150000000    -0.010000000
C    -1.193000000     2.515000000     0.057000000
H    -1.145000000     2.921000000     1.070000000
H    -0.753000000     3.241000000    -0.631000000
H    -2.241000000     2.358000000    -0.205000000
C     0.926000000     1.018000000     0.007000000
H     1.599000000     1.851000000     0.196000000
C     1.514000000    -0.298000000     0.030000000
H     2.562000000    -0.443000000     0.281000000
C     0.702000000    -1.427000000    -0.057000000
C     1.249000000    -2.804000000     0.065000000
O     2.412000000    -3.043000000    -0.059000000
O     0.462000000    -3.748000000     0.334000000
