17
-93.63621
C     0.970000000    -0.508000000     1.012000000
H     1.507000000    -0.979000000     1.832000000
C    -0.252000000     0.093000000     1.254000000
H    -0.693000000     0.105000000     2.248000000
C    -1.046000000     0.620000000     0.276000000
C    -2.311000000     1.373000000     0.585000000
H    -2.622000000     1.476000000     1.626000000
H    -2.384000000     2.402000000     0.227000000
H    -3.056000000     0.803000000     0.025000000
C    -0.618000000     0.335000000    -1.104000000
H    -1.231000000     0.671000000    -1.936000000
C     0.591000000    -0.264000000    -1.331000000
H     0.809000000    -0.494000000    -2.371000000
C     1.400000000    -0.717000000    -0.264000000
C     2.664000000    -1.395000000    -0.606000000
O     2.970000000    -1.642000000    -1.785000000
O     3.300000000    -1.876000000     0.308000000
