17
-93.18812
C    -0.907000000     1.074000000    -0.407000000
H    -1.529000000     1.872000000    -0.803000000
C     0.297000000     0.919000000    -0.932000000
H     0.715000000     1.644000000    -1.626000000
C     1.134000000    -0.053000000    -0.382000000
C     2.556000000    -0.303000000    -0.840000000
H     2.934000000     0.522000000    -1.448000000
H     3.065000000    -0.443000000     0.116000000
H     2.602000000    -1.219000000    -1.432000000
C     0.691000000    -0.973000000     0.508000000
H     1.337000000    -1.745000000     0.918000000
C    -0.665000000    -0.855000000     0.944000000
H    -1.017000000    -1.579000000     1.674000000
C    -1.450000000     0.243000000     0.526000000
C    -2.868000000     0.291000000     0.993000000
O    -3.432000000    -0.782000000     1.183000000
O    -3.460000000     1.384000000     1.011000000
