17
-100.60598
C    -0.918000000     0.944000000     0.575000000
H    -1.703000000     1.631000000     0.877000000
C    -0.579000000     0.788000000    -0.813000000
H    -1.150000000     1.317000000    -1.573000000
C     0.333000000    -0.195000000    -1.201000000
C     0.412000000    -0.449000000    -2.696000000
H     0.276000000     0.473000000    -3.265000000
H     1.407000000    -0.772000000    -3.009000000
H    -0.376000000    -1.143000000    -2.995000000
C     0.904000000    -0.982000000    -0.221000000
H     1.666000000    -1.697000000    -0.522000000
C     0.673000000    -0.762000000     1.140000000
H     1.259000000    -1.277000000     1.896000000
C    -0.242000000     0.231000000     1.589000000
C    -0.521000000     0.572000000     3.037000000
O    -0.075000000    -0.124000000     3.970000000
O    -1.370000000     1.450000000     3.213000000
