17
-80.98032
C     0.702000000    -1.165000000     0.502000000
H     1.282000000    -1.902000000     1.052000000
C    -0.296000000    -0.458000000     1.205000000
H    -0.486000000    -0.745000000     2.236000000
C    -0.992000000     0.524000000     0.536000000
C    -1.982000000     1.315000000     1.431000000
H    -3.028000000     1.154000000     1.162000000
H    -1.955000000     0.965000000     2.465000000
H    -1.722000000     2.375000000     1.386000000
C    -0.578000000     0.933000000    -0.770000000
H    -1.016000000     1.800000000    -1.256000000
C     0.457000000     0.268000000    -1.459000000
H     0.781000000     0.670000000    -2.415000000
C     1.150000000    -0.790000000    -0.795000000
C     2.268000000    -1.465000000    -1.574000000
O     2.457000000    -1.256000000    -2.703000000
O     2.962000000    -2.215000000    -1.007000000
