17
-95.63239
C    -1.381000000     0.386000000     0.421000000
H    -2.447000000     0.536000000     0.575000000
C    -0.911000000     0.410000000    -0.893000000
H    -1.592000000     0.528000000    -1.731000000
C     0.489000000     0.100000000    -1.155000000
C     1.060000000     0.141000000    -2.557000000
H     1.701000000    -0.717000000    -2.770000000
H     0.266000000     0.166000000    -3.307000000
H     1.708000000     1.015000000    -2.645000000
C     1.282000000    -0.351000000    -0.075000000
H     2.326000000    -0.545000000    -0.310000000
C     0.800000000    -0.337000000     1.250000000
H     1.467000000    -0.575000000     2.075000000
C    -0.604000000    -0.085000000     1.432000000
C    -1.203000000    -0.191000000     2.858000000
O    -0.642000000    -0.775000000     3.750000000
O    -2.326000000     0.290000000     3.084000000
