17
-92.56218
C    -0.680000000     0.989000000     0.953000000
H    -1.177000000     1.785000000     1.501000000
C    -0.870000000     0.924000000    -0.466000000
H    -1.429000000     1.647000000    -1.054000000
C    -0.107000000     0.032000000    -1.198000000
C    -0.252000000    -0.109000000    -2.731000000
H     0.625000000    -0.540000000    -3.219000000
H    -1.116000000    -0.696000000    -3.047000000
H    -0.493000000     0.914000000    -3.028000000
C     0.609000000    -0.960000000    -0.586000000
H     1.253000000    -1.721000000    -1.018000000
C     0.637000000    -1.030000000     0.817000000
H     1.245000000    -1.865000000     1.156000000
C     0.065000000    -0.004000000     1.603000000
C     0.502000000     0.187000000     3.049000000
O     0.923000000    -0.805000000     3.704000000
O     0.265000000     1.259000000     3.556000000
