17
-90.79694
C    -0.549000000     1.356000000    -0.116000000
H    -0.738000000     2.419000000    -0.240000000
C     0.302000000     0.725000000    -1.028000000
H     0.559000000     1.225000000    -1.959000000
C     0.693000000    -0.591000000    -0.777000000
C     1.478000000    -1.246000000    -1.859000000
H     0.845000000    -1.132000000    -2.742000000
H     2.425000000    -0.804000000    -2.176000000
H     1.565000000    -2.327000000    -1.734000000
C     0.403000000    -1.228000000     0.388000000
H     0.776000000    -2.239000000     0.526000000
C    -0.412000000    -0.614000000     1.275000000
H    -0.650000000    -1.068000000     2.234000000
C    -0.860000000     0.729000000     1.085000000
C    -1.644000000     1.429000000     2.143000000
O    -2.325000000     0.751000000     2.888000000
O    -1.867000000     2.617000000     2.087000000
