17
-91.20610
C    -0.597000000     1.296000000     0.006000000
H    -1.120000000     2.239000000    -0.133000000
C     0.083000000     0.777000000    -1.077000000
H    -0.032000000     1.290000000    -2.028000000
C     0.659000000    -0.452000000    -0.952000000
C     1.095000000    -1.227000000    -2.161000000
H     0.282000000    -1.881000000    -2.484000000
H     1.277000000    -0.523000000    -2.975000000
H     1.988000000    -1.815000000    -1.941000000
C     0.669000000    -1.081000000     0.293000000
H     1.129000000    -2.066000000     0.315000000
C    -0.012000000    -0.564000000     1.376000000
H    -0.107000000    -1.119000000     2.305000000
C    -0.632000000     0.672000000     1.287000000
C    -1.331000000     1.305000000     2.406000000
O    -1.601000000     0.715000000     3.431000000
O    -1.751000000     2.432000000     2.335000000
