17
-86.45720
C    -0.993000000     1.106000000     0.266000000
H    -1.789000000     1.840000000     0.363000000
C    -0.871000000     0.420000000    -0.915000000
H    -1.578000000     0.580000000    -1.725000000
C     0.078000000    -0.580000000    -1.054000000
C     0.137000000    -1.425000000    -2.279000000
H     0.267000000    -0.717000000    -3.101000000
H     0.885000000    -2.220000000    -2.244000000
H    -0.730000000    -2.041000000    -2.528000000
C     0.897000000    -0.877000000    -0.046000000
H     1.573000000    -1.719000000    -0.167000000
C     0.796000000    -0.196000000     1.118000000
H     1.476000000    -0.371000000     1.947000000
C    -0.062000000     0.873000000     1.299000000
C    -0.081000000     1.557000000     2.685000000
O     0.477000000     1.107000000     3.669000000
O    -0.487000000     2.667000000     2.707000000
