17
-86.65695
C    -0.603000000     1.216000000     0.319000000
H    -1.101000000     2.178000000     0.409000000
C    -0.454000000     0.697000000    -0.965000000
H    -0.876000000     1.217000000    -1.821000000
C     0.021000000    -0.569000000    -1.130000000
C     0.245000000    -1.134000000    -2.533000000
H    -0.375000000    -0.536000000    -3.205000000
H     1.298000000    -1.014000000    -2.794000000
H    -0.178000000    -2.141000000    -2.541000000
C     0.603000000    -1.206000000     0.003000000
H     1.163000000    -2.134000000    -0.086000000
C     0.510000000    -0.659000000     1.297000000
H     0.971000000    -1.164000000     2.143000000
C    -0.063000000     0.602000000     1.471000000
C    -0.402000000     1.318000000     2.778000000
O     0.106000000     0.930000000     3.828000000
O    -0.873000000     2.406000000     2.821000000
