17
-98.28256
C    -0.967000000     1.110000000     0.101000000
H    -1.683000000     1.916000000    -0.032000000
C    -0.310000000     0.675000000    -1.039000000
H    -0.365000000     1.241000000    -1.965000000
C     0.592000000    -0.365000000    -1.001000000
C     1.282000000    -0.828000000    -2.270000000
H     0.647000000    -0.856000000    -3.158000000
H     2.086000000    -0.138000000    -2.534000000
H     1.781000000    -1.795000000    -2.183000000
C     0.821000000    -0.987000000     0.232000000
H     1.530000000    -1.811000000     0.226000000
C     0.110000000    -0.664000000     1.405000000
H     0.366000000    -1.142000000     2.347000000
C    -0.845000000     0.407000000     1.311000000
C    -1.519000000     0.922000000     2.518000000
O    -1.159000000     0.531000000     3.629000000
O    -2.365000000     1.783000000     2.419000000
