17
-87.19224
C    -1.063000000     0.965000000     0.471000000
H    -1.901000000     1.649000000     0.574000000
C    -0.801000000     0.578000000    -0.858000000
H    -1.456000000     0.921000000    -1.656000000
C     0.191000000    -0.392000000    -1.170000000
C     0.306000000    -0.948000000    -2.580000000
H    -0.305000000    -0.422000000    -3.316000000
H     1.378000000    -0.950000000    -2.789000000
H    -0.101000000    -1.960000000    -2.557000000
C     1.031000000    -0.794000000    -0.114000000
H     1.797000000    -1.522000000    -0.367000000
C     0.907000000    -0.315000000     1.160000000
H     1.562000000    -0.780000000     1.892000000
C    -0.131000000     0.590000000     1.494000000
C    -0.395000000     1.050000000     2.878000000
O     0.270000000     0.569000000     3.744000000
O    -1.290000000     1.766000000     3.188000000
