17
-88.72914
C     0.397000000    -1.421000000     0.560000000
H     0.326000000    -2.405000000     1.017000000
C    -0.192000000    -0.328000000     1.221000000
H    -0.666000000    -0.565000000     2.170000000
C    -0.387000000     0.975000000     0.649000000
C    -1.243000000     2.049000000     1.384000000
H    -0.949000000     2.034000000     2.436000000
H    -1.182000000     3.096000000     1.079000000
H    -2.310000000     1.826000000     1.324000000
C    -0.100000000     1.137000000    -0.683000000
H    -0.282000000     2.119000000    -1.112000000
C     0.585000000     0.136000000    -1.351000000
H     0.713000000     0.303000000    -2.418000000
C     0.820000000    -1.147000000    -0.782000000
C     1.407000000    -2.292000000    -1.595000000
O     2.123000000    -2.104000000    -2.525000000
O     0.948000000    -3.409000000    -1.372000000
