17
-91.67128
C     0.406000000     1.146000000    -0.800000000
H     0.724000000     1.942000000    -1.468000000
C     1.104000000    -0.036000000    -0.677000000
H     1.836000000    -0.205000000    -1.462000000
C     0.643000000    -1.091000000     0.093000000
C     1.296000000    -2.415000000     0.032000000
H     1.865000000    -2.598000000     0.946000000
H     0.551000000    -3.210000000    -0.047000000
H     1.916000000    -2.391000000    -0.866000000
C    -0.444000000    -0.873000000     0.923000000
H    -0.747000000    -1.764000000     1.466000000
C    -1.134000000     0.336000000     0.888000000
H    -2.007000000     0.603000000     1.478000000
C    -0.724000000     1.395000000     0.026000000
C    -1.505000000     2.756000000    -0.031000000
O    -2.610000000     2.923000000     0.471000000
O    -1.176000000     3.482000000    -0.965000000
