17
-90.26985
C     0.233000000     1.481000000    -0.104000000
H     0.411000000     2.544000000    -0.251000000
C     0.880000000     0.480000000    -0.906000000
H     1.619000000     0.708000000    -1.670000000
C     0.599000000    -0.908000000    -0.653000000
C     1.442000000    -1.990000000    -1.298000000
H     0.817000000    -2.814000000    -1.646000000
H     2.016000000    -1.480000000    -2.074000000
H     2.203000000    -2.296000000    -0.577000000
C    -0.477000000    -1.171000000     0.176000000
H    -0.801000000    -2.193000000     0.355000000
C    -1.131000000    -0.194000000     0.896000000
H    -1.899000000    -0.509000000     1.598000000
C    -0.808000000     1.138000000     0.746000000
C    -1.397000000     2.158000000     1.629000000
O    -2.165000000     1.716000000     2.491000000
O    -1.542000000     3.332000000     1.281000000
