17
-86.02593
C    -0.738000000    -0.159000000    -1.338000000
H    -1.147000000    -0.220000000    -2.343000000
C     0.281000000     0.718000000    -1.035000000
H     0.667000000     1.365000000    -1.818000000
C     0.789000000     0.905000000     0.244000000
C     1.887000000     1.870000000     0.516000000
H     2.013000000     2.136000000     1.568000000
H     2.870000000     1.485000000     0.236000000
H     1.916000000     2.822000000    -0.018000000
C     0.289000000     0.084000000     1.240000000
H     0.819000000     0.125000000     2.188000000
C    -0.678000000    -0.866000000     0.997000000
H    -0.886000000    -1.635000000     1.737000000
C    -1.150000000    -1.049000000    -0.297000000
C    -2.087000000    -2.203000000    -0.567000000
O    -2.302000000    -2.948000000     0.323000000
O    -2.550000000    -2.436000000    -1.625000000
