17
-95.95095
C    -0.561000000    -1.010000000    -0.960000000
H    -1.003000000    -1.590000000    -1.766000000
C     0.068000000     0.153000000    -1.341000000
H     0.266000000     0.296000000    -2.401000000
C     0.614000000     0.956000000    -0.357000000
C     1.415000000     2.240000000    -0.706000000
H     2.152000000     2.498000000     0.057000000
H     1.855000000     2.117000000    -1.698000000
H     0.708000000     3.069000000    -0.646000000
C     0.374000000     0.745000000     0.968000000
H     0.687000000     1.377000000     1.795000000
C    -0.317000000    -0.366000000     1.410000000
H    -0.600000000    -0.486000000     2.453000000
C    -0.711000000    -1.295000000     0.398000000
C    -1.454000000    -2.546000000     0.813000000
O    -1.773000000    -2.714000000     1.981000000
O    -1.715000000    -3.449000000    -0.008000000
