17
-94.91173
C    -0.635000000    -0.731000000    -1.181000000
H    -1.096000000    -1.112000000    -2.089000000
C     0.174000000     0.455000000    -1.227000000
H     0.331000000     0.970000000    -2.171000000
C     0.631000000     1.079000000    -0.097000000
C     1.506000000     2.302000000    -0.211000000
H     2.119000000     2.468000000     0.678000000
H     2.114000000     2.120000000    -1.099000000
H     0.825000000     3.137000000    -0.391000000
C     0.284000000     0.576000000     1.163000000
H     0.611000000     1.080000000     2.069000000
C    -0.323000000    -0.698000000     1.204000000
H    -0.474000000    -1.159000000     2.176000000
C    -0.851000000    -1.340000000     0.066000000
C    -1.506000000    -2.693000000     0.308000000
O    -1.782000000    -3.089000000     1.424000000
O    -1.931000000    -3.373000000    -0.624000000
