17
-88.97083
C    -0.158000000    -0.864000000    -1.269000000
H    -0.220000000    -1.351000000    -2.239000000
C     0.515000000     0.361000000    -1.235000000
H     1.013000000     0.653000000    -2.156000000
C     0.687000000     0.993000000     0.006000000
C     1.584000000     2.187000000     0.332000000
H     1.982000000     2.695000000    -0.549000000
H     1.057000000     3.037000000     0.768000000
H     2.315000000     2.012000000     1.124000000
C    -0.126000000     0.682000000     1.036000000
H    -0.192000000     1.212000000     1.983000000
C    -0.879000000    -0.494000000     0.986000000
H    -1.515000000    -0.843000000     1.795000000
C    -0.821000000    -1.323000000    -0.120000000
C    -1.462000000    -2.674000000    -0.112000000
O    -2.313000000    -2.963000000     0.802000000
O    -1.474000000    -3.317000000    -1.145000000
