17
-92.45862
C    -0.068000000    -1.455000000     0.191000000
H    -0.234000000    -2.511000000     0.386000000
C    -0.508000000    -0.501000000     1.102000000
H    -1.105000000    -0.802000000     1.959000000
C    -0.332000000     0.858000000     0.803000000
C    -0.812000000     1.911000000     1.801000000
H    -0.180000000     2.785000000     1.632000000
H    -1.882000000     2.012000000     1.605000000
H    -0.743000000     1.589000000     2.842000000
C     0.114000000     1.241000000    -0.428000000
H     0.154000000     2.297000000    -0.681000000
C     0.594000000     0.316000000    -1.297000000
H     1.102000000     0.673000000    -2.188000000
C     0.538000000    -1.094000000    -1.035000000
C     1.124000000    -2.145000000    -1.925000000
O     1.370000000    -1.840000000    -3.111000000
O     0.860000000    -3.330000000    -1.658000000
