17
-101.38359
C     0.557000000    -1.374000000    -0.126000000
H     0.869000000    -2.390000000    -0.356000000
C     0.965000000    -0.298000000    -0.914000000
H     1.613000000    -0.480000000    -1.767000000
C     0.369000000     0.933000000    -0.709000000
C     0.744000000     2.094000000    -1.611000000
H     1.157000000     2.872000000    -0.966000000
H     1.419000000     1.787000000    -2.412000000
H    -0.213000000     2.464000000    -1.987000000
C    -0.436000000     1.157000000     0.408000000
H    -0.782000000     2.174000000     0.578000000
C    -0.793000000     0.061000000     1.256000000
H    -1.480000000     0.228000000     2.081000000
C    -0.408000000    -1.221000000     0.901000000
C    -1.004000000    -2.353000000     1.683000000
O    -1.787000000    -2.129000000     2.631000000
O    -0.796000000    -3.528000000     1.312000000
