17
-99.74273
C     0.436000000    -1.406000000    -0.244000000
H     0.871000000    -2.401000000    -0.268000000
C     1.316000000    -0.329000000    -0.140000000
H     2.375000000    -0.566000000    -0.210000000
C     0.766000000     0.981000000    -0.083000000
C     1.609000000     2.201000000     0.023000000
H     2.272000000     2.268000000    -0.842000000
H     1.010000000     3.114000000     0.049000000
H     2.188000000     2.182000000     0.948000000
C    -0.638000000     1.138000000    -0.038000000
H    -0.992000000     2.160000000     0.066000000
C    -1.478000000     0.062000000     0.092000000
H    -2.517000000     0.163000000     0.396000000
C    -0.922000000    -1.225000000    -0.032000000
C    -1.834000000    -2.465000000     0.044000000
O    -2.971000000    -2.296000000     0.519000000
O    -1.495000000    -3.582000000    -0.285000000
