17
-92.69215
C    -0.179000000    -1.265000000    -0.722000000
H    -0.295000000    -2.141000000    -1.356000000
C     0.291000000    -0.070000000    -1.321000000
H     0.354000000     0.110000000    -2.391000000
C     0.491000000     0.991000000    -0.489000000
C     0.806000000     2.337000000    -1.062000000
H     1.041000000     2.883000000    -0.146000000
H     1.694000000     2.336000000    -1.698000000
H    -0.091000000     2.722000000    -1.552000000
C     0.274000000     0.864000000     0.859000000
H     0.345000000     1.805000000     1.399000000
C    -0.193000000    -0.288000000     1.450000000
H    -0.328000000    -0.206000000     2.525000000
C    -0.458000000    -1.347000000     0.659000000
C    -1.054000000    -2.610000000     1.158000000
O    -1.586000000    -2.572000000     2.283000000
O    -1.109000000    -3.542000000     0.396000000
