17
-93.27666
C     0.255000000    -1.035000000    -0.977000000
H     0.523000000    -1.766000000    -1.735000000
C     1.111000000     0.032000000    -0.795000000
H     2.086000000     0.037000000    -1.276000000
C     0.745000000     0.974000000     0.204000000
C     1.700000000     2.082000000     0.576000000
H     2.247000000     2.409000000    -0.310000000
H     1.145000000     2.976000000     0.869000000
H     2.321000000     1.666000000     1.372000000
C    -0.467000000     0.883000000     0.924000000
H    -0.745000000     1.574000000     1.716000000
C    -1.277000000    -0.236000000     0.674000000
H    -2.188000000    -0.458000000     1.224000000
C    -0.952000000    -1.145000000    -0.337000000
C    -1.864000000    -2.346000000    -0.623000000
O    -2.943000000    -2.516000000    -0.003000000
O    -1.690000000    -3.126000000    -1.505000000
