17
-96.44220
C     1.163000000    -0.845000000    -0.021000000
H     2.152000000    -1.295000000     0.013000000
C     1.109000000     0.453000000    -0.540000000
H     1.925000000     0.838000000    -1.146000000
C    -0.097000000     1.177000000    -0.425000000
C    -0.061000000     2.561000000    -0.909000000
H    -1.059000000     2.825000000    -1.263000000
H     0.159000000     3.237000000    -0.080000000
H     0.684000000     2.733000000    -1.689000000
C    -1.186000000     0.552000000     0.177000000
H    -2.134000000     1.078000000     0.260000000
C    -1.165000000    -0.791000000     0.497000000
H    -2.027000000    -1.224000000     0.998000000
C     0.037000000    -1.506000000     0.542000000
C     0.167000000    -2.900000000     1.067000000
O    -0.871000000    -3.397000000     1.475000000
O     1.199000000    -3.501000000     1.044000000
