17
-97.19783
C     0.965000000    -0.870000000     0.704000000
H     1.728000000    -1.563000000     1.050000000
C     1.273000000    -0.053000000    -0.385000000
H     2.305000000    -0.109000000    -0.721000000
C     0.225000000     0.728000000    -1.008000000
C     0.541000000     1.595000000    -2.270000000
H     0.102000000     1.067000000    -3.119000000
H    -0.013000000     2.498000000    -2.007000000
H     1.587000000     1.833000000    -2.477000000
C    -1.032000000     0.648000000    -0.449000000
H    -1.863000000     1.193000000    -0.887000000
C    -1.262000000    -0.187000000     0.650000000
H    -2.298000000    -0.229000000     0.974000000
C    -0.298000000    -0.913000000     1.297000000
C    -0.555000000    -1.719000000     2.545000000
O    -1.748000000    -1.919000000     2.782000000
O     0.345000000    -1.996000000     3.314000000
