17
-92.05210
C     0.327000000     0.087000000     1.402000000
H     0.408000000     0.234000000     2.476000000
C     0.147000000     1.189000000     0.561000000
H     0.287000000     2.214000000     0.895000000
C    -0.165000000     0.996000000    -0.765000000
C    -0.371000000     2.162000000    -1.667000000
H     0.586000000     2.658000000    -1.839000000
H    -0.754000000     1.916000000    -2.660000000
H    -1.049000000     2.831000000    -1.132000000
C    -0.294000000    -0.303000000    -1.267000000
H    -0.622000000    -0.442000000    -2.294000000
C    -0.066000000    -1.446000000    -0.421000000
H    -0.067000000    -2.467000000    -0.794000000
C     0.202000000    -1.268000000     0.960000000
C     0.399000000    -2.459000000     1.933000000
O     0.098000000    -3.547000000     1.587000000
O     0.931000000    -2.359000000     3.028000000
