17
-94.50757
C     0.297000000    -0.555000000     1.346000000
H     0.549000000    -0.873000000     2.355000000
C     1.038000000     0.383000000     0.688000000
H     1.808000000     0.977000000     1.174000000
C     0.740000000     0.786000000    -0.629000000
C     1.431000000     1.978000000    -1.283000000
H     0.861000000     2.396000000    -2.115000000
H     1.651000000     2.784000000    -0.579000000
H     2.372000000     1.663000000    -1.740000000
C    -0.337000000     0.203000000    -1.262000000
H    -0.671000000     0.565000000    -2.231000000
C    -1.109000000    -0.807000000    -0.555000000
H    -2.128000000    -1.023000000    -0.867000000
C    -0.766000000    -1.211000000     0.732000000
C    -1.720000000    -2.093000000     1.481000000
O    -2.552000000    -2.766000000     0.840000000
O    -1.469000000    -2.411000000     2.645000000
