17
-96.56957
C     0.326000000    -0.394000000     1.371000000
H     0.622000000    -0.558000000     2.404000000
C     0.739000000     0.731000000     0.708000000
H     1.332000000     1.488000000     1.215000000
C     0.239000000     1.046000000    -0.588000000
C     0.628000000     2.395000000    -1.206000000
H     0.730000000     3.163000000    -0.437000000
H     1.590000000     2.209000000    -1.689000000
H    -0.056000000     2.819000000    -1.944000000
C    -0.584000000     0.130000000    -1.165000000
H    -0.932000000     0.428000000    -2.151000000
C    -0.853000000    -1.134000000    -0.639000000
H    -1.392000000    -1.843000000    -1.262000000
C    -0.399000000    -1.350000000     0.686000000
C    -0.637000000    -2.668000000     1.426000000
O    -1.391000000    -3.500000000     0.899000000
O     0.044000000    -2.966000000     2.377000000
