17
-101.31641
C     0.219000000    -0.125000000     1.412000000
H     0.522000000    -0.094000000     2.456000000
C     0.051000000     1.039000000     0.711000000
H     0.241000000     2.039000000     1.093000000
C    -0.267000000     1.023000000    -0.632000000
C    -0.374000000     2.378000000    -1.303000000
H    -0.452000000     2.313000000    -2.390000000
H    -1.240000000     2.887000000    -0.874000000
H     0.480000000     3.005000000    -1.040000000
C    -0.430000000    -0.184000000    -1.270000000
H    -0.660000000    -0.268000000    -2.329000000
C    -0.161000000    -1.394000000    -0.629000000
H    -0.203000000    -2.367000000    -1.111000000
C     0.158000000    -1.371000000     0.759000000
C     0.592000000    -2.614000000     1.499000000
O     0.583000000    -3.731000000     0.940000000
O     0.938000000    -2.536000000     2.713000000
