17
-97.63659
C     0.870000000    -0.825000000     0.769000000
H     1.573000000    -1.330000000     1.426000000
C     0.900000000     0.553000000     0.701000000
H     1.583000000     1.089000000     1.355000000
C     0.049000000     1.236000000    -0.165000000
C     0.000000000     2.746000000    -0.058000000
H    -0.453000000     2.992000000     0.904000000
H     0.950000000     3.242000000     0.152000000
H    -0.412000000     3.298000000    -0.906000000
C    -0.866000000     0.496000000    -0.926000000
H    -1.697000000     0.967000000    -1.444000000
C    -0.899000000    -0.898000000    -0.828000000
H    -1.590000000    -1.429000000    -1.477000000
C    -0.039000000    -1.593000000     0.014000000
C    -0.025000000    -3.097000000     0.094000000
O    -0.411000000    -3.872000000    -0.755000000
O     0.461000000    -3.576000000     1.149000000
