17
-94.64223
C     1.064000000    -0.840000000     0.582000000
H     1.835000000    -1.425000000     1.077000000
C     1.182000000     0.442000000     0.171000000
H     2.120000000     0.992000000     0.161000000
C     0.093000000     1.150000000    -0.350000000
C     0.396000000     2.554000000    -0.915000000
H     0.702000000     2.478000000    -1.960000000
H    -0.517000000     3.134000000    -0.765000000
H     1.308000000     2.925000000    -0.442000000
C    -1.088000000     0.509000000    -0.615000000
H    -1.874000000     1.044000000    -1.142000000
C    -1.321000000    -0.715000000     0.045000000
H    -2.257000000    -1.268000000     0.030000000
C    -0.222000000    -1.427000000     0.571000000
C    -0.462000000    -2.794000000     1.139000000
O    -1.457000000    -3.413000000     0.740000000
O     0.506000000    -3.353000000     1.676000000
