17
-97.02340
C     0.908000000    -1.021000000     0.297000000
H     1.645000000    -1.808000000     0.435000000
C     1.222000000     0.110000000    -0.399000000
H     2.241000000     0.335000000    -0.706000000
C     0.252000000     1.023000000    -0.586000000
C     0.611000000     2.286000000    -1.269000000
H     0.569000000     2.070000000    -2.339000000
H     0.002000000     3.177000000    -1.105000000
H     1.644000000     2.538000000    -1.022000000
C    -0.983000000     0.848000000    -0.041000000
H    -1.709000000     1.647000000    -0.164000000
C    -1.342000000    -0.319000000     0.569000000
H    -2.329000000    -0.472000000     0.998000000
C    -0.395000000    -1.317000000     0.749000000
C    -0.714000000    -2.685000000     1.335000000
O    -1.843000000    -2.936000000     1.742000000
O     0.223000000    -3.470000000     1.509000000
