17
-90.98285
C     1.078000000    -0.542000000     0.742000000
H     1.951000000    -0.962000000     1.236000000
C     1.283000000     0.178000000    -0.443000000
H     2.263000000     0.154000000    -0.913000000
C     0.156000000     0.632000000    -1.044000000
C     0.339000000     1.716000000    -2.076000000
H     0.219000000     2.647000000    -1.517000000
H     1.362000000     1.717000000    -2.457000000
H    -0.462000000     1.640000000    -2.815000000
C    -1.118000000     0.256000000    -0.676000000
H    -2.046000000     0.585000000    -1.138000000
C    -1.301000000    -0.608000000     0.479000000
H    -2.294000000    -0.853000000     0.847000000
C    -0.221000000    -0.947000000     1.217000000
C    -0.354000000    -1.647000000     2.511000000
O    -1.371000000    -2.305000000     2.666000000
O     0.521000000    -1.655000000     3.376000000
