17
-93.47721
C     0.835000000    -0.689000000     1.073000000
H     1.553000000    -1.107000000     1.774000000
C    -0.055000000     0.367000000     1.331000000
H    -0.171000000     0.720000000     2.353000000
C    -0.839000000     0.879000000     0.285000000
C    -1.886000000     1.879000000     0.478000000
H    -2.786000000     1.290000000     0.664000000
H    -1.603000000     2.523000000     1.314000000
H    -1.979000000     2.478000000    -0.430000000
C    -0.630000000     0.511000000    -1.015000000
H    -1.124000000     1.022000000    -1.838000000
C     0.282000000    -0.526000000    -1.316000000
H     0.489000000    -0.801000000    -2.347000000
C     0.999000000    -1.122000000    -0.297000000
C     2.059000000    -2.135000000    -0.681000000
O     1.636000000    -3.217000000    -1.095000000
O     3.222000000    -2.073000000    -0.259000000
