17
-95.68210
C     0.292000000     1.408000000     0.333000000
H     0.493000000     2.463000000     0.503000000
C    -0.936000000     0.892000000    -0.013000000
H    -1.789000000     1.539000000    -0.200000000
C    -1.089000000    -0.472000000    -0.230000000
C    -2.427000000    -0.985000000    -0.844000000
H    -3.289000000    -0.654000000    -0.261000000
H    -2.469000000    -0.471000000    -1.807000000
H    -2.449000000    -2.074000000    -0.925000000
C    -0.011000000    -1.329000000    -0.093000000
H    -0.113000000    -2.352000000    -0.446000000
C     1.226000000    -0.854000000     0.252000000
H     2.092000000    -1.506000000     0.171000000
C     1.349000000     0.551000000     0.480000000
C     2.670000000     1.120000000     0.926000000
O     3.579000000     0.419000000     1.353000000
O     2.875000000     2.309000000     0.797000000
