17
-91.66292
C     1.387000000    -0.150000000    -0.434000000
H     2.377000000    -0.153000000    -0.881000000
C     0.588000000     0.895000000    -0.733000000
H     0.948000000     1.710000000    -1.357000000
C    -0.739000000     0.921000000    -0.297000000
C    -1.674000000     1.971000000    -0.656000000
H    -2.294000000     1.574000000    -1.462000000
H    -2.476000000     2.168000000     0.059000000
H    -1.286000000     2.938000000    -0.980000000
C    -1.294000000    -0.133000000     0.451000000
H    -2.361000000    -0.112000000     0.659000000
C    -0.373000000    -1.125000000     0.935000000
H    -0.656000000    -1.960000000     1.571000000
C     0.954000000    -1.164000000     0.406000000
C     1.987000000    -2.191000000     0.774000000
O     1.787000000    -3.040000000     1.632000000
O     3.130000000    -2.148000000     0.316000000
