17
-98.16194
C     1.360000000    -0.573000000     0.011000000
H     2.377000000    -0.934000000    -0.117000000
C     1.076000000     0.808000000     0.058000000
H     1.808000000     1.611000000     0.037000000
C    -0.258000000     1.205000000    -0.038000000
C    -0.682000000     2.692000000     0.111000000
H    -1.762000000     2.769000000     0.250000000
H    -0.307000000     2.994000000     1.091000000
H    -0.135000000     3.275000000    -0.633000000
C    -1.255000000     0.267000000    -0.091000000
H    -2.289000000     0.603000000    -0.104000000
C    -0.975000000    -1.105000000    -0.174000000
H    -1.773000000    -1.837000000    -0.274000000
C     0.356000000    -1.525000000     0.028000000
C     0.736000000    -3.015000000    -0.022000000
O    -0.187000000    -3.821000000    -0.209000000
O     1.907000000    -3.413000000     0.071000000
