17
-95.01662
C     0.917000000    -0.777000000    -0.854000000
H     1.693000000    -1.192000000    -1.492000000
C     0.900000000     0.615000000    -0.775000000
H     1.648000000     1.236000000    -1.261000000
C     0.027000000     1.265000000     0.115000000
C     0.043000000     2.746000000     0.231000000
H    -0.994000000     3.059000000     0.370000000
H     0.678000000     2.970000000     1.091000000
H     0.296000000     3.198000000    -0.730000000
C    -0.959000000     0.457000000     0.717000000
H    -1.739000000     1.006000000     1.238000000
C    -0.955000000    -0.929000000     0.626000000
H    -1.666000000    -1.459000000     1.255000000
C     0.001000000    -1.588000000    -0.147000000
C     0.041000000    -3.107000000    -0.111000000
O    -0.739000000    -3.758000000     0.552000000
O     0.811000000    -3.741000000    -0.825000000
