17
-99.25048
C     1.326000000    -0.549000000    -0.136000000
H     2.309000000    -0.945000000    -0.378000000
C     1.072000000     0.790000000    -0.247000000
H     1.868000000     1.405000000    -0.660000000
C    -0.227000000     1.249000000     0.009000000
C    -0.661000000     2.611000000    -0.398000000
H    -1.519000000     2.461000000    -1.057000000
H    -0.991000000     3.134000000     0.503000000
H     0.057000000     3.258000000    -0.905000000
C    -1.169000000     0.305000000     0.413000000
H    -2.172000000     0.595000000     0.716000000
C    -0.920000000    -1.029000000     0.498000000
H    -1.691000000    -1.700000000     0.867000000
C     0.335000000    -1.495000000     0.187000000
C     0.706000000    -2.986000000     0.192000000
O    -0.191000000    -3.797000000     0.340000000
O     1.871000000    -3.300000000     0.057000000
