17
-92.72456
C     1.371000000    -0.630000000    -0.153000000
H     2.415000000    -0.933000000    -0.171000000
C     1.041000000     0.728000000    -0.153000000
H     1.817000000     1.488000000    -0.200000000
C    -0.234000000     1.213000000    -0.104000000
C    -0.378000000     2.692000000     0.091000000
H     0.032000000     3.163000000    -0.805000000
H    -1.440000000     2.943000000     0.107000000
H     0.285000000     3.016000000     0.896000000
C    -1.284000000     0.320000000    -0.028000000
H    -2.315000000     0.642000000     0.099000000
C    -1.030000000    -1.049000000    -0.022000000
H    -1.898000000    -1.702000000    -0.059000000
C     0.283000000    -1.538000000    -0.079000000
C     0.413000000    -3.043000000     0.126000000
O    -0.545000000    -3.664000000     0.493000000
O     1.461000000    -3.646000000    -0.031000000
