17
-95.38002
C     1.005000000    -0.813000000    -0.689000000
H     1.711000000    -1.390000000    -1.282000000
C     1.083000000     0.545000000    -0.525000000
H     1.911000000     1.120000000    -0.931000000
C     0.002000000     1.202000000     0.039000000
C    -0.021000000     2.731000000     0.184000000
H     0.822000000     3.071000000     0.789000000
H    -0.016000000     3.272000000    -0.765000000
H    -0.921000000     3.128000000     0.656000000
C    -1.081000000     0.465000000     0.620000000
H    -1.811000000     1.121000000     1.088000000
C    -1.083000000    -0.911000000     0.496000000
H    -1.896000000    -1.438000000     0.989000000
C    -0.024000000    -1.601000000    -0.110000000
C     0.082000000    -3.087000000    -0.148000000
O    -0.913000000    -3.787000000    -0.068000000
O     1.149000000    -3.631000000    -0.344000000
