17
-92.59746
C     0.536000000    -1.342000000     0.202000000
H     1.062000000    -2.292000000     0.236000000
C     1.099000000    -0.143000000     0.577000000
H     2.054000000    -0.240000000     1.086000000
C     0.394000000     1.081000000     0.527000000
C     1.100000000     2.322000000     0.935000000
H     0.927000000     3.074000000     0.162000000
H     0.864000000     2.731000000     1.920000000
H     2.185000000     2.267000000     1.043000000
C    -0.821000000     1.029000000    -0.120000000
H    -1.311000000     1.991000000    -0.246000000
C    -1.380000000    -0.175000000    -0.579000000
H    -2.311000000    -0.257000000    -1.134000000
C    -0.716000000    -1.381000000    -0.392000000
C    -1.107000000    -2.573000000    -1.172000000
O    -2.285000000    -2.708000000    -1.485000000
O    -0.297000000    -3.377000000    -1.558000000
