17
-101.03065
C     0.975000000    -0.005000000     1.047000000
H     1.566000000    -0.070000000     1.956000000
C    -0.372000000     0.285000000     1.208000000
H    -0.812000000     0.389000000     2.196000000
C    -1.215000000     0.313000000     0.073000000
C    -2.646000000     0.734000000     0.341000000
H    -3.069000000     0.149000000     1.161000000
H    -2.587000000     1.754000000     0.729000000
H    -3.210000000     0.606000000    -0.585000000
C    -0.713000000    -0.083000000    -1.155000000
H    -1.347000000    -0.101000000    -2.038000000
C     0.651000000    -0.365000000    -1.309000000
H     0.945000000    -0.669000000    -2.311000000
C     1.559000000    -0.407000000    -0.202000000
C     3.069000000    -0.722000000    -0.359000000
O     3.568000000    -0.786000000    -1.484000000
O     3.643000000    -1.028000000     0.727000000
