17
-95.83782
C     0.682000000    -0.566000000    -1.179000000
H     1.277000000    -0.757000000    -2.069000000
C     1.129000000     0.540000000    -0.459000000
H     2.070000000     1.050000000    -0.645000000
C     0.433000000     0.872000000     0.656000000
C     0.911000000     2.120000000     1.516000000
H     1.898000000     2.065000000     1.981000000
H     0.979000000     3.007000000     0.882000000
H     0.174000000     2.260000000     2.310000000
C    -0.721000000     0.225000000     1.031000000
H    -1.382000000     0.520000000     1.842000000
C    -1.169000000    -0.835000000     0.267000000
H    -2.068000000    -1.342000000     0.608000000
C    -0.474000000    -1.283000000    -0.856000000
C    -1.098000000    -2.309000000    -1.752000000
O    -2.247000000    -2.694000000    -1.529000000
O    -0.392000000    -2.865000000    -2.598000000
