17
-89.46199
C     0.594000000     1.375000000     0.168000000
H     1.147000000     2.263000000     0.463000000
C    -0.135000000     0.585000000     1.200000000
H    -0.306000000     0.973000000     2.200000000
C    -0.655000000    -0.625000000     0.842000000
C    -1.396000000    -1.413000000     1.921000000
H    -2.396000000    -1.026000000     2.126000000
H    -1.474000000    -2.468000000     1.650000000
H    -0.897000000    -1.360000000     2.891000000
C    -0.411000000    -1.187000000    -0.418000000
H    -0.711000000    -2.202000000    -0.663000000
C     0.220000000    -0.424000000    -1.386000000
H     0.417000000    -0.839000000    -2.371000000
C     0.766000000     0.849000000    -1.154000000
C     1.572000000     1.595000000    -2.187000000
O     2.082000000     1.075000000    -3.115000000
O     1.578000000     2.826000000    -2.160000000
