17
-91.99119
C     0.432000000     1.274000000    -0.630000000
H     0.663000000     2.233000000    -1.087000000
C    -0.207000000     1.139000000     0.551000000
H    -0.491000000     1.980000000     1.178000000
C    -0.568000000    -0.099000000     1.087000000
C    -1.464000000    -0.214000000     2.309000000
H    -1.843000000    -1.236000000     2.237000000
H    -1.081000000     0.135000000     3.271000000
H    -2.377000000     0.350000000     2.109000000
C    -0.170000000    -1.247000000     0.468000000
H    -0.488000000    -2.180000000     0.925000000
C     0.599000000    -1.146000000    -0.740000000
H     0.960000000    -2.013000000    -1.288000000
C     0.766000000     0.103000000    -1.385000000
C     1.590000000     0.269000000    -2.662000000
O     1.944000000    -0.723000000    -3.211000000
O     1.736000000     1.381000000    -3.136000000
