17
-89.80681
C     0.691000000     1.013000000    -0.845000000
H     1.093000000     1.756000000    -1.529000000
C    -0.370000000     1.259000000    -0.048000000
H    -0.893000000     2.212000000    -0.060000000
C    -0.969000000     0.264000000     0.731000000
C    -2.144000000     0.520000000     1.667000000
H    -3.038000000     0.369000000     1.059000000
H    -2.047000000    -0.264000000     2.420000000
H    -2.142000000     1.498000000     2.154000000
C    -0.488000000    -1.055000000     0.579000000
H    -0.990000000    -1.849000000     1.126000000
C     0.659000000    -1.213000000    -0.149000000
H     0.991000000    -2.228000000    -0.352000000
C     1.247000000    -0.233000000    -0.846000000
C     2.487000000    -0.580000000    -1.694000000
O     2.941000000    -1.688000000    -1.694000000
O     2.976000000     0.223000000    -2.517000000
