17
-99.37112
C     1.258000000     0.076000000    -0.793000000
H     2.150000000     0.245000000    -1.391000000
C     0.056000000     0.642000000    -1.119000000
H    -0.072000000     1.315000000    -1.963000000
C    -1.051000000     0.548000000    -0.288000000
C    -2.372000000     1.301000000    -0.589000000
H    -3.173000000     0.577000000    -0.756000000
H    -2.760000000     1.865000000     0.262000000
H    -2.250000000     1.933000000    -1.471000000
C    -0.970000000    -0.278000000     0.801000000
H    -1.803000000    -0.450000000     1.477000000
C     0.225000000    -0.900000000     1.174000000
H     0.174000000    -1.566000000     2.031000000
C     1.390000000    -0.688000000     0.371000000
C     2.730000000    -1.338000000     0.685000000
O     2.830000000    -2.134000000     1.651000000
O     3.635000000    -1.148000000    -0.081000000
