17
-87.99575
C     1.170000000     0.455000000    -0.755000000
H     1.964000000     0.898000000    -1.350000000
C     0.061000000     1.270000000    -0.483000000
H    -0.106000000     2.262000000    -0.896000000
C    -0.984000000     0.655000000     0.180000000
C    -2.352000000     1.399000000     0.267000000
H    -2.494000000     2.157000000    -0.506000000
H    -3.203000000     0.756000000     0.499000000
H    -2.147000000     1.994000000     1.160000000
C    -0.830000000    -0.603000000     0.781000000
H    -1.627000000    -1.078000000     1.349000000
C     0.287000000    -1.362000000     0.471000000
H     0.396000000    -2.246000000     1.095000000
C     1.311000000    -0.857000000    -0.299000000
C     2.479000000    -1.702000000    -0.528000000
O     2.692000000    -2.643000000     0.261000000
O     3.377000000    -1.351000000    -1.251000000
