17
-88.98682
C     1.405000000     0.335000000    -0.421000000
H     2.380000000     0.565000000    -0.842000000
C     0.235000000     1.042000000    -0.817000000
H     0.309000000     1.905000000    -1.473000000
C    -0.955000000     0.698000000    -0.311000000
C    -2.243000000     1.403000000    -0.708000000
H    -2.165000000     1.560000000    -1.785000000
H    -3.113000000     0.783000000    -0.482000000
H    -2.369000000     2.376000000    -0.227000000
C    -1.090000000    -0.388000000     0.550000000
H    -2.066000000    -0.737000000     0.877000000
C     0.001000000    -1.133000000     0.834000000
H    -0.038000000    -2.066000000     1.391000000
C     1.294000000    -0.788000000     0.424000000
C     2.471000000    -1.662000000     0.836000000
O     2.380000000    -2.619000000     1.570000000
O     3.558000000    -1.278000000     0.582000000
