17
-86.11259
C     1.295000000     0.580000000    -0.067000000
H     2.234000000     1.098000000    -0.242000000
C     0.179000000     1.085000000    -0.610000000
H     0.223000000     2.001000000    -1.193000000
C    -1.118000000     0.536000000    -0.321000000
C    -2.374000000     1.021000000    -1.080000000
H    -2.315000000     0.752000000    -2.137000000
H    -3.250000000     0.447000000    -0.773000000
H    -2.566000000     2.092000000    -0.997000000
C    -1.097000000    -0.671000000     0.406000000
H    -2.062000000    -1.153000000     0.532000000
C     0.159000000    -1.180000000     0.897000000
H     0.133000000    -2.099000000     1.476000000
C     1.405000000    -0.556000000     0.679000000
C     2.709000000    -1.100000000     1.119000000
O     2.701000000    -2.255000000     1.512000000
O     3.749000000    -0.600000000     0.792000000
