17
-88.82775
C     0.499000000     0.444000000     1.327000000
H     0.831000000     0.887000000     2.263000000
C     0.150000000     1.266000000     0.219000000
H     0.379000000     2.328000000     0.242000000
C    -0.464000000     0.715000000    -0.910000000
C    -0.713000000     1.697000000    -2.079000000
H    -1.804000000     1.739000000    -2.113000000
H    -0.399000000     2.733000000    -1.941000000
H    -0.313000000     1.355000000    -3.035000000
C    -0.585000000    -0.692000000    -0.974000000
H    -0.957000000    -1.104000000    -1.909000000
C    -0.158000000    -1.469000000     0.045000000
H    -0.264000000    -2.551000000     0.028000000
C     0.318000000    -0.979000000     1.225000000
C     1.030000000    -1.890000000     2.234000000
O     1.243000000    -3.014000000     1.985000000
O     1.202000000    -1.461000000     3.393000000
