17
-94.64856
C     0.880000000     1.196000000    -0.130000000
H     1.573000000     2.034000000    -0.156000000
C    -0.325000000     1.197000000     0.540000000
H    -0.713000000     2.058000000     1.079000000
C    -1.130000000     0.045000000     0.543000000
C    -2.493000000    -0.017000000     1.241000000
H    -3.056000000     0.799000000     0.782000000
H    -3.029000000    -0.946000000     1.037000000
H    -2.370000000     0.117000000     2.318000000
C    -0.704000000    -1.097000000    -0.155000000
H    -1.155000000    -2.074000000     0.003000000
C     0.624000000    -1.132000000    -0.707000000
H     0.996000000    -2.083000000    -1.079000000
C     1.427000000     0.006000000    -0.739000000
C     2.790000000    -0.023000000    -1.354000000
O     3.136000000    -0.957000000    -2.061000000
O     3.553000000     0.874000000    -1.159000000
