17
-96.25432
C     1.121000000     0.623000000     0.807000000
H     1.879000000     1.198000000     1.333000000
C     0.267000000     1.237000000    -0.097000000
H     0.391000000     2.286000000    -0.354000000
C    -0.771000000     0.579000000    -0.783000000
C    -1.630000000     1.330000000    -1.784000000
H    -1.031000000     2.027000000    -2.374000000
H    -2.135000000     0.603000000    -2.425000000
H    -2.352000000     1.973000000    -1.277000000
C    -0.808000000    -0.801000000    -0.697000000
H    -1.553000000    -1.388000000    -1.228000000
C     0.002000000    -1.501000000     0.250000000
H    -0.213000000    -2.539000000     0.489000000
C     0.979000000    -0.776000000     0.981000000
C     1.773000000    -1.443000000     2.085000000
O     1.800000000    -2.645000000     2.144000000
O     2.277000000    -0.767000000     2.934000000
