17
-92.40554
C     0.952000000     0.726000000     0.825000000
H     1.572000000     1.416000000     1.391000000
C     0.565000000     1.019000000    -0.503000000
H     0.903000000     1.923000000    -1.004000000
C    -0.366000000     0.270000000    -1.147000000
C    -0.771000000     0.766000000    -2.496000000
H    -0.454000000     1.801000000    -2.641000000
H    -0.248000000     0.175000000    -3.251000000
H    -1.853000000     0.809000000    -2.635000000
C    -0.836000000    -0.894000000    -0.525000000
H    -1.539000000    -1.447000000    -1.144000000
C    -0.450000000    -1.279000000     0.742000000
H    -0.803000000    -2.222000000     1.150000000
C     0.478000000    -0.415000000     1.493000000
C     0.801000000    -0.802000000     2.849000000
O     0.361000000    -1.755000000     3.433000000
O     1.684000000    -0.091000000     3.466000000
