17
-86.53016
C     0.901000000     0.947000000     0.638000000
H     1.626000000     1.683000000     0.976000000
C     0.621000000     0.935000000    -0.664000000
H     1.122000000     1.698000000    -1.254000000
C    -0.228000000    -0.030000000    -1.260000000
C    -0.636000000    -0.033000000    -2.670000000
H    -0.904000000     0.971000000    -3.005000000
H     0.162000000    -0.470000000    -3.275000000
H    -1.598000000    -0.546000000    -2.730000000
C    -0.848000000    -0.902000000    -0.345000000
H    -1.548000000    -1.621000000    -0.763000000
C    -0.598000000    -0.853000000     1.016000000
H    -1.065000000    -1.509000000     1.746000000
C     0.295000000     0.092000000     1.511000000
C     0.721000000    -0.004000000     2.991000000
O     0.343000000    -0.966000000     3.611000000
O     1.633000000     0.609000000     3.476000000
