17
-87.32765
C     0.249000000     0.443000000     1.332000000
H     0.440000000     0.866000000     2.315000000
C     0.019000000     1.285000000     0.286000000
H     0.018000000     2.370000000     0.346000000
C    -0.302000000     0.682000000    -0.947000000
C    -0.564000000     1.602000000    -2.141000000
H    -1.342000000     1.223000000    -2.807000000
H    -0.674000000     2.662000000    -1.901000000
H     0.282000000     1.564000000    -2.830000000
C    -0.313000000    -0.695000000    -1.076000000
H    -0.618000000    -1.189000000    -1.995000000
C    -0.008000000    -1.459000000     0.070000000
H    -0.072000000    -2.540000000    -0.021000000
C     0.321000000    -0.903000000     1.266000000
C     0.676000000    -1.748000000     2.417000000
O     0.785000000    -2.909000000     2.248000000
O     1.108000000    -1.246000000     3.433000000
