17
-89.36168
C     0.597000000     0.683000000     1.104000000
H     1.009000000     1.376000000     1.833000000
C    -0.258000000     1.233000000     0.171000000
H    -0.458000000     2.300000000     0.227000000
C    -0.770000000     0.412000000    -0.861000000
C    -1.645000000     1.136000000    -1.951000000
H    -2.173000000     0.459000000    -2.625000000
H    -2.371000000     1.782000000    -1.453000000
H    -1.062000000     1.787000000    -2.607000000
C    -0.533000000    -0.960000000    -0.822000000
H    -0.880000000    -1.657000000    -1.580000000
C     0.387000000    -1.442000000     0.103000000
H     0.686000000    -2.487000000     0.090000000
C     1.067000000    -0.631000000     1.047000000
C     1.950000000    -1.165000000     2.098000000
O     2.101000000    -2.354000000     2.235000000
O     2.359000000    -0.467000000     2.994000000
