17
-87.72761
C     1.237000000     0.596000000     0.581000000
H     2.225000000     0.951000000     0.862000000
C     0.698000000     1.014000000    -0.584000000
H     1.270000000     1.605000000    -1.294000000
C    -0.509000000     0.375000000    -1.018000000
C    -1.091000000     0.726000000    -2.395000000
H    -0.318000000     0.433000000    -3.109000000
H    -2.045000000     0.226000000    -2.579000000
H    -1.300000000     1.789000000    -2.533000000
C    -1.181000000    -0.569000000    -0.228000000
H    -2.084000000    -1.060000000    -0.583000000
C    -0.674000000    -0.943000000     1.022000000
H    -1.099000000    -1.808000000     1.525000000
C     0.535000000    -0.294000000     1.464000000
C     1.235000000    -0.749000000     2.696000000
O     0.629000000    -1.428000000     3.478000000
O     2.471000000    -0.858000000     2.697000000
