17
-94.25265
C     1.226000000     0.815000000     0.372000000
H     2.033000000     1.505000000     0.605000000
C     0.472000000     0.907000000    -0.788000000
H     0.683000000     1.666000000    -1.537000000
C    -0.618000000     0.085000000    -0.999000000
C    -1.333000000     0.308000000    -2.353000000
H    -1.723000000     1.327000000    -2.399000000
H    -0.742000000     0.224000000    -3.267000000
H    -2.155000000    -0.409000000    -2.392000000
C    -1.091000000    -0.801000000    -0.031000000
H    -1.937000000    -1.469000000    -0.167000000
C    -0.281000000    -0.974000000     1.100000000
H    -0.660000000    -1.714000000     1.801000000
C     0.867000000    -0.195000000     1.313000000
C     1.621000000    -0.427000000     2.524000000
O     1.405000000    -1.394000000     3.251000000
O     2.239000000     0.550000000     2.972000000
