17
-99.75932
C     1.168000000     0.006000000     0.868000000
H     2.104000000     0.114000000     1.411000000
C     1.163000000     0.183000000    -0.514000000
H     2.072000000     0.355000000    -1.085000000
C    -0.005000000     0.147000000    -1.219000000
C    -0.031000000     0.340000000    -2.704000000
H    -1.060000000     0.164000000    -3.024000000
H     0.257000000     1.359000000    -2.973000000
H     0.655000000    -0.292000000    -3.272000000
C    -1.199000000    -0.039000000    -0.535000000
H    -2.163000000     0.097000000    -1.018000000
C    -1.204000000    -0.287000000     0.877000000
H    -2.130000000    -0.449000000     1.424000000
C    -0.022000000    -0.218000000     1.562000000
C     0.094000000    -0.438000000     3.023000000
O    -0.877000000    -0.816000000     3.652000000
O     1.172000000    -0.227000000     3.528000000
