17
-87.20604
C     0.882000000     0.175000000     1.159000000
H     1.665000000     0.269000000     1.907000000
C     1.135000000     0.699000000    -0.158000000
H     2.054000000     1.241000000    -0.365000000
C     0.272000000     0.331000000    -1.173000000
C     0.383000000     0.987000000    -2.536000000
H     0.142000000     0.355000000    -3.393000000
H    -0.145000000     1.942000000    -2.504000000
H     1.435000000     1.227000000    -2.699000000
C    -0.823000000    -0.496000000    -0.834000000
H    -1.574000000    -0.729000000    -1.585000000
C    -1.127000000    -0.892000000     0.431000000
H    -1.979000000    -1.537000000     0.628000000
C    -0.281000000    -0.528000000     1.463000000
C    -0.593000000    -0.879000000     2.887000000
O    -1.595000000    -1.550000000     3.063000000
O     0.151000000    -0.615000000     3.714000000
