17
-96.53027
C     1.409000000     0.165000000     0.303000000
H     2.459000000     0.108000000     0.579000000
C     0.916000000    -0.699000000    -0.708000000
H     1.688000000    -1.241000000    -1.248000000
C    -0.442000000    -0.752000000    -0.881000000
C    -0.928000000    -1.619000000    -1.932000000
H    -0.781000000    -1.198000000    -2.928000000
H    -0.303000000    -2.515000000    -1.948000000
H    -1.965000000    -1.930000000    -1.787000000
C    -1.344000000     0.048000000    -0.109000000
H    -2.416000000     0.086000000    -0.283000000
C    -0.794000000     0.873000000     0.818000000
H    -1.459000000     1.441000000     1.463000000
C     0.573000000     0.984000000     1.033000000
C     1.004000000     1.816000000     2.226000000
O     0.285000000     2.772000000     2.665000000
O     2.106000000     1.656000000     2.731000000
