17
-91.15891
C     1.174000000     0.230000000     0.873000000
H     2.139000000     0.317000000     1.367000000
C     1.239000000    -0.381000000    -0.450000000
H     2.172000000    -0.783000000    -0.836000000
C     0.063000000    -0.367000000    -1.208000000
C    -0.047000000    -0.998000000    -2.599000000
H    -0.935000000    -0.599000000    -3.092000000
H     0.860000000    -0.780000000    -3.167000000
H    -0.173000000    -2.075000000    -2.468000000
C    -1.013000000     0.246000000    -0.585000000
H    -1.903000000     0.250000000    -1.210000000
C    -1.144000000     0.657000000     0.734000000
H    -2.126000000     1.010000000     1.037000000
C    -0.001000000     0.552000000     1.497000000
C    -0.080000000     0.832000000     3.006000000
O    -1.133000000     1.188000000     3.429000000
O     0.912000000     0.702000000     3.671000000
