17
-93.88871
C     1.254000000     0.116000000     0.689000000
H     2.204000000     0.044000000     1.213000000
C     0.891000000    -0.938000000    -0.088000000
H     1.469000000    -1.851000000    -0.203000000
C    -0.327000000    -0.891000000    -0.726000000
C    -0.812000000    -2.132000000    -1.463000000
H    -0.240000000    -2.330000000    -2.372000000
H    -0.788000000    -3.051000000    -0.875000000
H    -1.843000000    -2.081000000    -1.822000000
C    -1.138000000     0.250000000    -0.631000000
H    -2.091000000     0.326000000    -1.148000000
C    -0.742000000     1.334000000     0.146000000
H    -1.389000000     2.204000000     0.225000000
C     0.457000000     1.285000000     0.843000000
C     0.889000000     2.311000000     1.776000000
O     0.287000000     3.311000000     2.013000000
O     1.914000000     2.098000000     2.425000000
