17
-94.24574
C     0.848000000    -0.504000000     1.005000000
H     1.466000000    -0.977000000     1.764000000
C     0.854000000    -0.918000000    -0.297000000
H     1.611000000    -1.661000000    -0.531000000
C    -0.046000000    -0.367000000    -1.184000000
C     0.166000000    -0.582000000    -2.619000000
H     0.801000000    -1.442000000    -2.842000000
H    -0.752000000    -0.757000000    -3.183000000
H     0.660000000     0.259000000    -3.111000000
C    -1.005000000     0.568000000    -0.702000000
H    -1.693000000     0.984000000    -1.434000000
C    -0.979000000     0.958000000     0.658000000
H    -1.748000000     1.646000000     0.999000000
C     0.031000000     0.457000000     1.484000000
C    -0.022000000     0.767000000     2.976000000
O    -0.997000000     1.338000000     3.334000000
O     0.809000000     0.239000000     3.677000000
