17
-93.48083
C     1.229000000    -0.065000000     0.852000000
H     2.209000000    -0.096000000     1.321000000
C     1.075000000    -0.735000000    -0.346000000
H     1.895000000    -1.268000000    -0.822000000
C    -0.136000000    -0.617000000    -1.013000000
C    -0.339000000    -1.304000000    -2.335000000
H     0.235000000    -2.233000000    -2.343000000
H    -1.361000000    -1.635000000    -2.530000000
H    -0.117000000    -0.625000000    -3.161000000
C    -1.197000000     0.070000000    -0.505000000
H    -2.167000000     0.066000000    -0.996000000
C    -1.065000000     0.801000000     0.694000000
H    -1.871000000     1.468000000     0.989000000
C     0.208000000     0.723000000     1.334000000
C     0.439000000     1.618000000     2.569000000
O    -0.456000000     2.305000000     2.996000000
O     1.425000000     1.527000000     3.293000000
