17
-91.61289
C     1.339000000    -0.293000000     0.623000000
H     2.379000000    -0.527000000     0.837000000
C     0.740000000    -0.956000000    -0.473000000
H     1.210000000    -1.758000000    -1.036000000
C    -0.514000000    -0.640000000    -0.895000000
C    -0.917000000    -1.236000000    -2.308000000
H    -0.838000000    -2.325000000    -2.348000000
H    -1.969000000    -0.983000000    -2.452000000
H    -0.262000000    -0.818000000    -3.076000000
C    -1.278000000     0.353000000    -0.243000000
H    -2.286000000     0.651000000    -0.518000000
C    -0.717000000     1.000000000     0.896000000
H    -1.260000000     1.831000000     1.338000000
C     0.582000000     0.657000000     1.302000000
C     1.102000000     1.493000000     2.443000000
O     0.412000000     2.151000000     3.228000000
O     2.279000000     1.396000000     2.681000000
