17
-99.31692
C     1.236000000    -0.646000000     0.586000000
H     2.253000000    -0.990000000     0.756000000
C     0.691000000    -0.883000000    -0.729000000
H     1.300000000    -1.510000000    -1.376000000
C    -0.401000000    -0.187000000    -1.154000000
C    -1.037000000    -0.425000000    -2.484000000
H    -1.578000000    -1.370000000    -2.396000000
H    -1.760000000     0.298000000    -2.868000000
H    -0.236000000    -0.612000000    -3.202000000
C    -1.079000000     0.642000000    -0.248000000
H    -1.988000000     1.056000000    -0.675000000
C    -0.619000000     0.852000000     1.061000000
H    -1.175000000     1.512000000     1.722000000
C     0.612000000     0.270000000     1.440000000
C     1.121000000     0.568000000     2.824000000
O     0.513000000     1.412000000     3.522000000
O     2.143000000     0.016000000     3.224000000
