17
-92.49304
C     1.186000000     0.470000000     0.755000000
H     2.005000000     0.874000000     1.345000000
C    -0.046000000     1.187000000     0.590000000
H    -0.145000000     2.114000000     1.149000000
C    -1.107000000     0.614000000    -0.108000000
C    -2.278000000     1.408000000    -0.433000000
H    -2.310000000     2.335000000     0.143000000
H    -2.377000000     1.681000000    -1.486000000
H    -3.221000000     0.916000000    -0.186000000
C    -0.938000000    -0.624000000    -0.717000000
H    -1.788000000    -1.089000000    -1.210000000
C     0.287000000    -1.278000000    -0.525000000
H     0.390000000    -2.292000000    -0.901000000
C     1.317000000    -0.772000000     0.185000000
C     2.652000000    -1.608000000     0.405000000
O     2.897000000    -2.575000000    -0.280000000
O     3.483000000    -1.362000000     1.277000000
