17
-93.63677
C     0.144000000     0.145000000     1.449000000
H     0.218000000    -0.037000000     2.518000000
C     0.112000000    -1.021000000     0.726000000
H     0.239000000    -1.983000000     1.215000000
C     0.182000000    -1.005000000    -0.660000000
C     0.273000000    -2.277000000    -1.479000000
H     1.299000000    -2.640000000    -1.383000000
H    -0.332000000    -3.131000000    -1.169000000
H     0.135000000    -2.036000000    -2.536000000
C     0.000000000     0.176000000    -1.279000000
H    -0.044000000     0.155000000    -2.365000000
C    -0.258000000     1.353000000    -0.535000000
H    -0.473000000     2.315000000    -0.994000000
C    -0.214000000     1.317000000     0.873000000
C    -0.351000000     2.568000000     1.684000000
O    -0.300000000     3.626000000     1.066000000
O    -0.630000000     2.468000000     2.865000000
