17
-91.30163
C     0.703000000     0.343000000     1.230000000
H     1.295000000     0.526000000     2.123000000
C     0.934000000    -0.766000000     0.458000000
H     1.602000000    -1.577000000     0.737000000
C     0.254000000    -0.929000000    -0.708000000
C     0.614000000    -2.104000000    -1.544000000
H     0.585000000    -1.799000000    -2.592000000
H     1.617000000    -2.499000000    -1.368000000
H    -0.166000000    -2.861000000    -1.439000000
C    -0.793000000    -0.113000000    -1.021000000
H    -1.302000000    -0.326000000    -1.958000000
C    -1.017000000     1.042000000    -0.296000000
H    -1.782000000     1.736000000    -0.632000000
C    -0.249000000     1.306000000     0.843000000
C    -0.560000000     2.428000000     1.785000000
O    -1.508000000     3.145000000     1.436000000
O    -0.233000000     2.449000000     2.943000000
