17
-95.86071
C     1.470000000    -0.197000000     0.527000000
H     2.491000000    -0.418000000     0.825000000
C     0.710000000    -1.129000000    -0.184000000
H     1.036000000    -2.121000000    -0.483000000
C    -0.540000000    -0.850000000    -0.633000000
C    -1.480000000    -1.823000000    -1.382000000
H    -1.512000000    -1.551000000    -2.439000000
H    -1.121000000    -2.850000000    -1.282000000
H    -2.463000000    -1.840000000    -0.908000000
C    -1.143000000     0.367000000    -0.369000000
H    -2.125000000     0.640000000    -0.748000000
C    -0.420000000     1.273000000     0.398000000
H    -0.967000000     2.200000000     0.549000000
C     0.874000000     1.038000000     0.826000000
C     1.564000000     2.140000000     1.556000000
O     0.927000000     3.146000000     1.790000000
O     2.693000000     1.982000000     1.955000000
