17
-89.62951
C    -0.095000000    -0.256000000     1.480000000
H    -0.060000000    -0.571000000     2.519000000
C     0.705000000    -0.948000000     0.521000000
H     1.158000000    -1.901000000     0.783000000
C     0.784000000    -0.506000000    -0.815000000
C     1.517000000    -1.358000000    -1.807000000
H     0.843000000    -2.208000000    -1.930000000
H     1.681000000    -0.910000000    -2.789000000
H     2.481000000    -1.767000000    -1.496000000
C    -0.035000000     0.475000000    -1.193000000
H    -0.031000000     0.625000000    -2.270000000
C    -0.819000000     1.205000000    -0.351000000
H    -1.530000000     1.942000000    -0.716000000
C    -0.795000000     0.903000000     1.058000000
C    -1.643000000     1.598000000     2.110000000
O    -2.311000000     2.535000000     1.695000000
O    -1.857000000     1.135000000     3.205000000
