17
-95.99388
C    -1.285000000    -0.371000000     0.577000000
H    -2.236000000    -0.759000000     0.933000000
C    -0.606000000    -1.201000000    -0.393000000
H    -0.928000000    -2.234000000    -0.498000000
C     0.550000000    -0.613000000    -0.931000000
C     1.413000000    -1.491000000    -1.770000000
H     0.818000000    -1.644000000    -2.673000000
H     2.377000000    -1.050000000    -2.032000000
H     1.508000000    -2.456000000    -1.267000000
C     1.067000000     0.592000000    -0.477000000
H     1.951000000     1.064000000    -0.900000000
C     0.418000000     1.329000000     0.521000000
H     0.822000000     2.290000000     0.831000000
C    -0.808000000     0.871000000     0.991000000
C    -1.500000000     1.645000000     2.094000000
O    -1.065000000     2.786000000     2.372000000
O    -2.493000000     1.234000000     2.626000000
