17
-90.96632
C     1.432000000     0.409000000    -0.023000000
H     2.490000000     0.599000000     0.138000000
C     0.470000000     0.773000000     0.924000000
H     0.612000000     1.418000000     1.788000000
C    -0.816000000     0.463000000     0.776000000
C    -1.777000000     0.769000000     1.909000000
H    -1.668000000    -0.141000000     2.503000000
H    -1.409000000     1.657000000     2.427000000
H    -2.821000000     0.858000000     1.601000000
C    -1.257000000    -0.252000000    -0.327000000
H    -2.324000000    -0.395000000    -0.478000000
C    -0.325000000    -0.759000000    -1.247000000
H    -0.635000000    -1.431000000    -2.042000000
C     1.059000000    -0.369000000    -1.156000000
C     2.055000000    -1.020000000    -2.023000000
O     1.687000000    -1.613000000    -3.032000000
O     3.227000000    -0.973000000    -1.736000000
