17
-101.07193
C     0.668000000     1.266000000     0.322000000
H     1.228000000     2.162000000     0.579000000
C     1.044000000     0.350000000    -0.733000000
H     1.880000000     0.613000000    -1.376000000
C     0.276000000    -0.810000000    -0.922000000
C     0.718000000    -1.732000000    -2.013000000
H     0.579000000    -2.806000000    -1.872000000
H     0.133000000    -1.548000000    -2.917000000
H     1.754000000    -1.483000000    -2.252000000
C    -0.833000000    -1.105000000    -0.089000000
H    -1.442000000    -1.997000000    -0.205000000
C    -1.185000000    -0.151000000     0.862000000
H    -2.004000000    -0.317000000     1.557000000
C    -0.449000000     1.001000000     1.148000000
C    -0.731000000     1.947000000     2.335000000
O    -1.701000000     1.757000000     3.032000000
O     0.068000000     2.853000000     2.537000000
