17
-95.97585
C     1.490000000    -0.180000000     0.073000000
H     2.546000000    -0.339000000     0.279000000
C     0.652000000     0.482000000     1.022000000
H     1.133000000     0.929000000     1.888000000
C    -0.687000000     0.613000000     0.872000000
C    -1.542000000     1.324000000     1.811000000
H    -2.574000000     1.401000000     1.461000000
H    -1.570000000     0.706000000     2.711000000
H    -1.223000000     2.351000000     1.996000000
C    -1.285000000     0.042000000    -0.282000000
H    -2.353000000     0.152000000    -0.455000000
C    -0.482000000    -0.658000000    -1.222000000
H    -0.951000000    -1.142000000    -2.075000000
C     0.882000000    -0.857000000    -1.010000000
C     1.736000000    -1.506000000    -2.056000000
O     1.316000000    -1.640000000    -3.194000000
O     2.908000000    -1.680000000    -1.821000000
