17
-96.36399
C    -0.026000000    -0.172000000     1.488000000
H     0.259000000    -0.369000000     2.519000000
C     0.575000000    -0.986000000     0.546000000
H     1.251000000    -1.785000000     0.841000000
C     0.513000000    -0.726000000    -0.851000000
C     1.511000000    -1.502000000    -1.726000000
H     2.474000000    -1.548000000    -1.214000000
H     1.178000000    -2.539000000    -1.801000000
H     1.566000000    -0.991000000    -2.690000000
C    -0.348000000     0.240000000    -1.292000000
H    -0.469000000     0.426000000    -2.356000000
C    -1.062000000     1.000000000    -0.375000000
H    -1.628000000     1.859000000    -0.725000000
C    -0.841000000     0.893000000     1.024000000
C    -1.436000000     1.869000000     1.985000000
O    -1.927000000     2.898000000     1.531000000
O    -1.582000000     1.429000000     3.094000000
