17
-92.15547
C     0.545000000     0.266000000     1.377000000
H     1.047000000     0.597000000     2.283000000
C     1.160000000    -0.549000000     0.371000000
H     2.152000000    -0.958000000     0.545000000
C     0.549000000    -0.709000000    -0.860000000
C     1.219000000    -1.523000000    -1.955000000
H     2.294000000    -1.407000000    -1.799000000
H     0.958000000    -2.554000000    -1.707000000
H     0.857000000    -1.308000000    -2.962000000
C    -0.668000000    -0.142000000    -1.112000000
H    -1.176000000    -0.141000000    -2.073000000
C    -1.279000000     0.672000000    -0.145000000
H    -2.192000000     1.236000000    -0.319000000
C    -0.677000000     0.842000000     1.066000000
C    -1.378000000     1.698000000     2.105000000
O    -2.487000000     2.162000000     1.952000000
O    -0.921000000     1.811000000     3.226000000
