17
-92.57036
C    -0.173000000     1.471000000    -0.006000000
H    -0.116000000     2.556000000    -0.047000000
C     0.609000000     0.735000000    -0.913000000
H     1.239000000     1.215000000    -1.657000000
C     0.616000000    -0.642000000    -0.800000000
C     1.643000000    -1.426000000    -1.631000000
H     1.351000000    -2.477000000    -1.568000000
H     1.579000000    -1.198000000    -2.697000000
H     2.676000000    -1.196000000    -1.360000000
C    -0.067000000    -1.249000000     0.192000000
H     0.073000000    -2.307000000     0.397000000
C    -0.892000000    -0.549000000     1.116000000
H    -1.330000000    -1.130000000     1.923000000
C    -0.894000000     0.831000000     0.972000000
C    -1.796000000     1.614000000     1.837000000
O    -2.194000000     1.148000000     2.879000000
O    -2.326000000     2.611000000     1.365000000
