17
-96.21128
C    -0.322000000     1.438000000     0.073000000
H    -0.594000000     2.490000000     0.042000000
C     0.408000000     0.813000000    -0.952000000
H     0.868000000     1.321000000    -1.795000000
C     0.699000000    -0.571000000    -0.812000000
C     1.696000000    -1.162000000    -1.806000000
H     1.494000000    -0.960000000    -2.860000000
H     2.654000000    -0.700000000    -1.561000000
H     1.846000000    -2.244000000    -1.801000000
C     0.102000000    -1.351000000     0.132000000
H     0.479000000    -2.356000000     0.304000000
C    -0.804000000    -0.728000000     1.073000000
H    -1.260000000    -1.293000000     1.882000000
C    -0.996000000     0.712000000     1.051000000
C    -1.866000000     1.357000000     2.066000000
O    -2.163000000     0.717000000     3.063000000
O    -2.243000000     2.511000000     1.897000000
