17
-91.99404
C     1.056000000     0.655000000     0.689000000
H     1.888000000     1.094000000     1.233000000
C     1.092000000    -0.602000000     0.044000000
H     2.022000000    -1.162000000    -0.004000000
C    -0.001000000    -1.042000000    -0.606000000
C     0.120000000    -2.389000000    -1.411000000
H    -0.895000000    -2.761000000    -1.570000000
H     0.724000000    -2.360000000    -2.320000000
H     0.551000000    -3.079000000    -0.683000000
C    -1.202000000    -0.348000000    -0.495000000
H    -2.051000000    -0.754000000    -1.039000000
C    -1.213000000     0.824000000     0.172000000
H    -2.151000000     1.363000000     0.060000000
C    -0.085000000     1.407000000     0.749000000
C    -0.001000000     2.677000000     1.541000000
O    -0.946000000     3.452000000     1.553000000
O     1.086000000     3.030000000     2.088000000
