17
-96.50997
C     0.351000000     1.336000000    -0.604000000
H     0.701000000     2.266000000    -1.044000000
C     0.856000000     0.047000000    -0.993000000
H     1.621000000    -0.023000000    -1.762000000
C     0.421000000    -1.092000000    -0.304000000
C     0.859000000    -2.451000000    -0.920000000
H     0.133000000    -3.217000000    -0.639000000
H     0.961000000    -2.380000000    -2.005000000
H     1.869000000    -2.694000000    -0.583000000
C    -0.518000000    -1.036000000     0.706000000
H    -0.822000000    -1.928000000     1.248000000
C    -1.021000000     0.198000000     1.137000000
H    -1.751000000     0.225000000     1.943000000
C    -0.552000000     1.390000000     0.483000000
C    -0.907000000     2.782000000     0.992000000
O    -1.577000000     2.868000000     2.016000000
O    -0.618000000     3.710000000     0.323000000
