17
-86.67606
C     0.568000000     1.333000000    -0.200000000
H     1.155000000     2.240000000    -0.081000000
C     1.254000000     0.106000000    -0.183000000
H     2.325000000     0.149000000    -0.365000000
C     0.649000000    -1.080000000    -0.170000000
C     1.432000000    -2.390000000     0.014000000
H     1.643000000    -2.848000000    -0.955000000
H     2.368000000    -2.115000000     0.505000000
H     0.824000000    -3.037000000     0.651000000
C    -0.738000000    -1.054000000     0.043000000
H    -1.350000000    -1.944000000     0.165000000
C    -1.433000000     0.126000000     0.063000000
H    -2.510000000     0.050000000     0.187000000
C    -0.822000000     1.379000000    -0.079000000
C    -1.573000000     2.656000000     0.122000000
O    -2.739000000     2.667000000     0.335000000
O    -1.050000000     3.763000000    -0.051000000
