17
-95.48963
C     0.335000000     0.900000000    -1.113000000
H     0.675000000     1.494000000    -1.957000000
C     0.605000000    -0.443000000    -1.029000000
H     1.139000000    -0.920000000    -1.847000000
C     0.340000000    -1.151000000     0.137000000
C     0.759000000    -2.615000000     0.267000000
H     1.759000000    -2.648000000     0.705000000
H     0.198000000    -3.262000000     0.944000000
H     0.767000000    -3.037000000    -0.740000000
C    -0.339000000    -0.548000000     1.155000000
H    -0.473000000    -1.169000000     2.037000000
C    -0.793000000     0.763000000     0.982000000
H    -1.401000000     1.159000000     1.792000000
C    -0.458000000     1.538000000    -0.146000000
C    -0.881000000     2.942000000    -0.300000000
O    -1.822000000     3.348000000     0.319000000
O    -0.402000000     3.650000000    -1.207000000
