17
-95.91970
C     0.085000000     0.875000000    -1.204000000
H     0.175000000     1.397000000    -2.153000000
C     0.483000000    -0.457000000    -1.173000000
H     0.905000000    -0.955000000    -2.042000000
C     0.361000000    -1.149000000    -0.004000000
C     0.779000000    -2.617000000     0.009000000
H     0.597000000    -2.881000000     1.053000000
H     0.192000000    -3.174000000    -0.724000000
H     1.852000000    -2.757000000    -0.143000000
C    -0.036000000    -0.517000000     1.165000000
H    -0.036000000    -1.075000000     2.098000000
C    -0.471000000     0.778000000     1.146000000
H    -0.841000000     1.303000000     2.023000000
C    -0.403000000     1.492000000    -0.024000000
C    -1.000000000     2.863000000     0.012000000
O    -1.898000000     3.166000000     0.816000000
O    -0.736000000     3.704000000    -0.860000000
