17
-90.74707
C     1.130000000    -0.154000000     0.958000000
H     1.825000000    -0.191000000     1.793000000
C    -0.191000000    -0.678000000     1.142000000
H    -0.470000000    -1.263000000     2.015000000
C    -1.196000000    -0.438000000     0.167000000
C    -2.566000000    -1.028000000     0.252000000
H    -2.535000000    -1.833000000     0.989000000
H    -3.260000000    -0.284000000     0.648000000
H    -2.831000000    -1.284000000    -0.776000000
C    -0.844000000     0.371000000    -0.989000000
H    -1.666000000     0.631000000    -1.652000000
C     0.481000000     0.828000000    -1.139000000
H     0.805000000     1.428000000    -1.986000000
C     1.509000000     0.515000000    -0.213000000
C     2.883000000     0.966000000    -0.360000000
O     3.151000000     1.720000000    -1.266000000
O     3.781000000     0.702000000     0.410000000
