17
-93.53404
C     1.072000000     0.885000000     0.303000000
H     1.926000000     1.554000000     0.368000000
C     0.946000000     0.100000000    -0.834000000
H     1.702000000     0.183000000    -1.610000000
C    -0.089000000    -0.791000000    -0.997000000
C    -0.092000000    -1.589000000    -2.297000000
H    -0.175000000    -0.908000000    -3.147000000
H     0.735000000    -2.301000000    -2.299000000
H    -0.974000000    -2.233000000    -2.283000000
C    -1.067000000    -0.818000000     0.037000000
H    -1.909000000    -1.504000000     0.024000000
C    -1.028000000     0.085000000     1.136000000
H    -1.793000000     0.158000000     1.905000000
C     0.059000000     1.002000000     1.273000000
C     0.151000000     1.889000000     2.459000000
O    -0.639000000     1.787000000     3.361000000
O     1.181000000     2.507000000     2.599000000
