17
-90.06335
C     1.513000000    -0.046000000     0.240000000
H     2.556000000    -0.278000000     0.436000000
C     0.856000000    -0.659000000    -0.806000000
H     1.480000000    -1.325000000    -1.395000000
C    -0.514000000    -0.424000000    -1.067000000
C    -1.433000000    -1.094000000    -2.067000000
H    -2.033000000    -1.856000000    -1.566000000
H    -2.213000000    -0.469000000    -2.508000000
H    -0.825000000    -1.639000000    -2.793000000
C    -1.197000000     0.313000000    -0.134000000
H    -2.275000000     0.331000000    -0.272000000
C    -0.539000000     1.004000000     0.903000000
H    -1.151000000     1.481000000     1.664000000
C     0.801000000     0.765000000     1.145000000
C     1.478000000     1.125000000     2.450000000
O     0.800000000     1.746000000     3.200000000
O     2.703000000     1.033000000     2.570000000
