17
-90.29085
C     1.100000000    -0.045000000     0.894000000
H     2.035000000     0.035000000     1.441000000
C     1.009000000    -0.820000000    -0.238000000
H     1.870000000    -1.345000000    -0.644000000
C    -0.148000000    -0.711000000    -0.975000000
C    -0.334000000    -1.534000000    -2.229000000
H     0.632000000    -1.978000000    -2.479000000
H    -1.064000000    -2.329000000    -2.064000000
H    -0.632000000    -0.967000000    -3.113000000
C    -1.155000000     0.229000000    -0.629000000
H    -1.969000000     0.313000000    -1.344000000
C    -1.034000000     0.980000000     0.543000000
H    -1.806000000     1.696000000     0.814000000
C     0.098000000     0.842000000     1.360000000
C     0.378000000     1.658000000     2.569000000
O    -0.470000000     2.296000000     3.066000000
O     1.485000000     1.675000000     3.024000000
