17
-91.11209
C     1.278000000     0.352000000     0.597000000
H     2.270000000     0.440000000     1.031000000
C     1.075000000    -0.040000000    -0.675000000
H     1.964000000    -0.279000000    -1.254000000
C    -0.195000000    -0.457000000    -1.108000000
C    -0.351000000    -0.948000000    -2.583000000
H    -0.672000000    -0.091000000    -3.177000000
H     0.595000000    -1.283000000    -3.015000000
H    -1.116000000    -1.701000000    -2.786000000
C    -1.277000000    -0.300000000    -0.248000000
H    -2.256000000    -0.619000000    -0.596000000
C    -1.113000000     0.266000000     0.991000000
H    -1.904000000     0.398000000     1.725000000
C     0.160000000     0.543000000     1.456000000
C     0.421000000     1.096000000     2.849000000
O    -0.453000000     1.262000000     3.613000000
O     1.567000000     1.367000000     3.173000000
