17
-97.46214
C     0.608000000     0.193000000     1.345000000
H     1.173000000     0.282000000     2.269000000
C     1.262000000    -0.214000000     0.190000000
H     2.261000000    -0.618000000     0.328000000
C     0.562000000    -0.428000000    -0.976000000
C     1.232000000    -1.180000000    -2.136000000
H     2.247000000    -1.403000000    -1.800000000
H     0.759000000    -2.161000000    -2.217000000
H     1.150000000    -0.693000000    -3.110000000
C    -0.711000000     0.042000000    -1.154000000
H    -1.223000000    -0.123000000    -2.098000000
C    -1.363000000     0.536000000     0.019000000
H    -2.395000000     0.868000000    -0.070000000
C    -0.692000000     0.652000000     1.230000000
C    -1.422000000     1.222000000     2.399000000
O    -2.507000000     1.872000000     2.241000000
O    -0.946000000     1.146000000     3.533000000
