17
-89.21678
C     0.952000000    -0.402000000     1.040000000
H     1.738000000    -0.625000000     1.757000000
C     1.143000000    -0.592000000    -0.321000000
H     2.106000000    -0.979000000    -0.646000000
C     0.138000000    -0.235000000    -1.156000000
C     0.361000000    -0.498000000    -2.659000000
H     0.192000000     0.458000000    -3.159000000
H     1.406000000    -0.762000000    -2.840000000
H    -0.471000000    -1.141000000    -2.954000000
C    -0.962000000     0.470000000    -0.747000000
H    -1.513000000     0.967000000    -1.540000000
C    -1.235000000     0.584000000     0.594000000
H    -2.142000000     1.097000000     0.904000000
C    -0.262000000     0.200000000     1.537000000
C    -0.396000000     0.460000000     2.991000000
O    -1.457000000     0.936000000     3.417000000
O     0.405000000     0.057000000     3.774000000
