17
-98.27196
C     1.125000000     0.848000000    -0.260000000
H     2.050000000     1.367000000    -0.498000000
C     1.202000000    -0.556000000    -0.224000000
H     2.180000000    -0.982000000    -0.434000000
C     0.026000000    -1.247000000     0.033000000
C     0.068000000    -2.739000000    -0.173000000
H     0.588000000    -2.959000000    -1.108000000
H     0.576000000    -3.264000000     0.639000000
H    -0.922000000    -3.195000000    -0.233000000
C    -1.161000000    -0.536000000     0.237000000
H    -2.116000000    -1.051000000     0.187000000
C    -1.233000000     0.868000000     0.304000000
H    -2.174000000     1.396000000     0.432000000
C    -0.053000000     1.577000000     0.129000000
C    -0.101000000     3.087000000     0.232000000
O    -0.997000000     3.697000000     0.834000000
O     0.942000000     3.691000000    -0.092000000
