17
-88.81162
C     0.824000000    -0.037000000     1.147000000
H     1.525000000    -0.240000000     1.953000000
C     0.884000000    -0.866000000     0.038000000
H     1.664000000    -1.617000000    -0.051000000
C    -0.007000000    -0.751000000    -0.974000000
C     0.076000000    -1.779000000    -2.030000000
H    -0.806000000    -1.714000000    -2.670000000
H     1.005000000    -1.633000000    -2.584000000
H     0.253000000    -2.753000000    -1.568000000
C    -0.971000000     0.279000000    -0.998000000
H    -1.621000000     0.423000000    -1.856000000
C    -1.000000000     1.129000000     0.146000000
H    -1.650000000     1.999000000     0.199000000
C    -0.098000000     0.988000000     1.196000000
C    -0.100000000     1.882000000     2.421000000
O    -0.795000000     2.853000000     2.435000000
O     0.815000000     1.837000000     3.198000000
