17
-92.44240
C     0.942000000     0.781000000     0.680000000
H     1.771000000     1.259000000     1.196000000
C     1.124000000    -0.508000000     0.183000000
H     2.126000000    -0.895000000     0.346000000
C     0.085000000    -1.191000000    -0.452000000
C     0.343000000    -2.586000000    -1.004000000
H     1.016000000    -2.596000000    -1.863000000
H     0.847000000    -3.282000000    -0.330000000
H    -0.642000000    -2.947000000    -1.306000000
C    -1.199000000    -0.568000000    -0.374000000
H    -2.038000000    -1.072000000    -0.848000000
C    -1.294000000     0.796000000    -0.036000000
H    -2.260000000     1.290000000    -0.092000000
C    -0.189000000     1.471000000     0.498000000
C    -0.256000000     2.941000000     1.030000000
O    -1.039000000     3.770000000     0.619000000
O     0.665000000     3.339000000     1.751000000
