17
-97.14668
C     0.047000000     0.620000000     1.333000000
H     0.094000000     0.973000000     2.360000000
C     0.416000000    -0.687000000     1.033000000
H     0.710000000    -1.321000000     1.865000000
C     0.331000000    -1.114000000    -0.309000000
C     0.846000000    -2.522000000    -0.613000000
H     1.700000000    -2.819000000    -0.001000000
H    -0.006000000    -3.182000000    -0.436000000
H     1.064000000    -2.679000000    -1.672000000
C    -0.175000000    -0.301000000    -1.252000000
H    -0.340000000    -0.633000000    -2.274000000
C    -0.557000000     0.978000000    -0.985000000
H    -0.859000000     1.574000000    -1.843000000
C    -0.385000000     1.482000000     0.334000000
C    -0.818000000     2.878000000     0.692000000
O    -1.289000000     3.590000000    -0.134000000
O    -0.781000000     3.169000000     1.907000000
