17
-97.05488
C    -0.886000000    -0.128000000     1.111000000
H    -1.509000000    -0.453000000     1.941000000
C    -0.505000000    -1.161000000     0.201000000
H    -0.933000000    -2.140000000     0.397000000
C     0.280000000    -0.851000000    -0.890000000
C     0.647000000    -1.962000000    -1.819000000
H    -0.326000000    -2.187000000    -2.261000000
H     1.308000000    -1.695000000    -2.647000000
H     1.059000000    -2.859000000    -1.351000000
C     0.799000000     0.467000000    -0.989000000
H     1.500000000     0.743000000    -1.774000000
C     0.512000000     1.423000000    -0.014000000
H     1.064000000     2.360000000    -0.012000000
C    -0.373000000     1.115000000     1.028000000
C    -0.734000000     2.150000000     2.093000000
O    -0.453000000     3.322000000     1.933000000
O    -1.443000000     1.856000000     3.051000000
