17
-98.72024
C     0.878000000    -0.252000000     1.201000000
H     1.425000000    -0.604000000     2.072000000
C    -0.481000000    -0.068000000     1.232000000
H    -1.090000000    -0.275000000     2.108000000
C    -1.227000000     0.100000000     0.111000000
C    -2.731000000     0.083000000     0.059000000
H    -3.148000000    -0.923000000    -0.028000000
H    -3.059000000     0.518000000     1.005000000
H    -3.083000000     0.634000000    -0.816000000
C    -0.565000000     0.286000000    -1.122000000
H    -1.189000000     0.352000000    -2.010000000
C     0.817000000     0.250000000    -1.202000000
H     1.377000000     0.364000000    -2.126000000
C     1.555000000    -0.043000000    -0.047000000
C     3.104000000    -0.156000000    -0.147000000
O     3.693000000     0.645000000    -0.891000000
O     3.727000000    -0.907000000     0.597000000
