17
-89.72520
C    -0.670000000    -0.226000000     1.227000000
H    -1.173000000    -0.572000000     2.127000000
C    -0.255000000    -1.213000000     0.351000000
H    -0.460000000    -2.273000000     0.483000000
C     0.439000000    -0.865000000    -0.795000000
C     0.893000000    -1.916000000    -1.751000000
H     0.920000000    -2.918000000    -1.318000000
H     0.293000000    -1.891000000    -2.663000000
H     1.875000000    -1.607000000    -2.116000000
C     0.602000000     0.464000000    -1.027000000
H     1.045000000     0.764000000    -1.974000000
C     0.115000000     1.477000000    -0.207000000
H     0.342000000     2.529000000    -0.360000000
C    -0.486000000     1.138000000     1.042000000
C    -0.991000000     2.098000000     2.080000000
O    -0.871000000     3.254000000     1.858000000
O    -1.616000000     1.752000000     3.048000000
