17
-90.46475
C    -0.466000000     0.424000000     1.294000000
H    -0.757000000     0.661000000     2.314000000
C    -0.202000000    -0.891000000     0.946000000
H    -0.405000000    -1.675000000     1.671000000
C     0.325000000    -1.159000000    -0.314000000
C     0.447000000    -2.562000000    -0.733000000
H    -0.511000000    -2.875000000    -1.151000000
H     1.256000000    -2.591000000    -1.466000000
H     0.793000000    -3.119000000     0.141000000
C     0.483000000    -0.188000000    -1.240000000
H     0.693000000    -0.426000000    -2.279000000
C     0.340000000     1.129000000    -0.872000000
H     0.376000000     1.933000000    -1.603000000
C    -0.232000000     1.477000000     0.410000000
C    -0.626000000     2.922000000     0.813000000
O    -0.168000000     3.916000000     0.301000000
O    -1.348000000     3.026000000     1.769000000
