17
-89.73327
C     0.697000000     1.238000000    -0.270000000
H     1.211000000     2.196000000    -0.289000000
C    -0.215000000     1.038000000     0.790000000
H    -0.530000000     1.829000000     1.466000000
C    -0.777000000    -0.193000000     0.904000000
C    -1.805000000    -0.428000000     1.945000000
H    -1.485000000     0.125000000     2.830000000
H    -2.692000000     0.144000000     1.666000000
H    -2.082000000    -1.465000000     2.146000000
C    -0.478000000    -1.195000000     0.051000000
H    -1.067000000    -2.108000000     0.066000000
C     0.389000000    -1.060000000    -1.053000000
H     0.591000000    -1.888000000    -1.728000000
C     1.028000000     0.217000000    -1.231000000
C     2.091000000     0.464000000    -2.205000000
O     2.373000000    -0.379000000    -3.031000000
O     2.743000000     1.458000000    -2.059000000
