17
-93.14772
C     0.800000000     1.270000000     0.145000000
H     1.445000000     2.116000000     0.366000000
C     0.027000000     0.659000000     1.096000000
H     0.048000000     1.159000000     2.061000000
C    -0.729000000    -0.481000000     0.875000000
C    -1.580000000    -1.064000000     1.980000000
H    -1.745000000    -2.129000000     1.804000000
H    -1.083000000    -1.050000000     2.952000000
H    -2.547000000    -0.561000000     2.042000000
C    -0.733000000    -1.081000000    -0.368000000
H    -1.198000000    -2.060000000    -0.457000000
C     0.077000000    -0.520000000    -1.396000000
H     0.268000000    -0.974000000    -2.365000000
C     0.908000000     0.623000000    -1.146000000
C     1.843000000     1.197000000    -2.232000000
O     1.990000000     0.577000000    -3.245000000
O     2.205000000     2.324000000    -2.110000000
