17
-97.26637
C    -0.473000000     1.443000000     0.120000000
H    -0.703000000     2.490000000     0.304000000
C    -0.472000000     0.481000000     1.145000000
H    -0.836000000     0.826000000     2.109000000
C    -0.130000000    -0.874000000     0.925000000
C    -0.100000000    -1.923000000     1.933000000
H     0.180000000    -1.498000000     2.899000000
H    -1.075000000    -2.410000000     2.013000000
H     0.696000000    -2.657000000     1.788000000
C     0.205000000    -1.207000000    -0.408000000
H     0.596000000    -2.206000000    -0.579000000
C     0.290000000    -0.271000000    -1.448000000
H     0.671000000    -0.609000000    -2.408000000
C    -0.023000000     1.041000000    -1.129000000
C     0.269000000     2.146000000    -2.165000000
O     0.925000000     1.924000000    -3.180000000
O    -0.013000000     3.303000000    -1.913000000
