17
-89.29205
C     0.298000000     1.371000000    -0.528000000
H     0.329000000     2.413000000    -0.836000000
C    -0.618000000     1.092000000     0.509000000
H    -1.063000000     1.867000000     1.128000000
C    -0.754000000    -0.297000000     0.892000000
C    -1.655000000    -0.590000000     2.148000000
H    -2.667000000    -0.510000000     1.746000000
H    -1.510000000    -1.612000000     2.504000000
H    -1.494000000     0.222000000     2.860000000
C    -0.090000000    -1.237000000     0.216000000
H    -0.331000000    -2.281000000     0.399000000
C     0.746000000    -0.970000000    -0.846000000
H     1.208000000    -1.825000000    -1.331000000
C     1.024000000     0.363000000    -1.173000000
C     1.889000000     0.599000000    -2.314000000
O     2.639000000    -0.329000000    -2.571000000
O     2.057000000     1.718000000    -2.798000000
