17
-96.66094
C    -0.275000000     1.278000000    -0.660000000
H    -0.397000000     2.297000000    -1.018000000
C    -0.920000000     0.819000000     0.478000000
H    -1.604000000     1.498000000     0.981000000
C    -0.588000000    -0.416000000     1.029000000
C    -1.149000000    -0.828000000     2.287000000
H    -2.022000000    -1.467000000     2.148000000
H    -0.478000000    -1.466000000     2.866000000
H    -1.352000000     0.101000000     2.825000000
C     0.346000000    -1.227000000     0.340000000
H     0.666000000    -2.163000000     0.790000000
C     0.948000000    -0.731000000    -0.809000000
H     1.739000000    -1.362000000    -1.208000000
C     0.631000000     0.480000000    -1.309000000
C     1.352000000     0.909000000    -2.566000000
O     1.868000000     0.158000000    -3.379000000
O     1.235000000     2.128000000    -2.790000000
