17
-94.33858
C     1.135000000     0.862000000     0.404000000
H     1.995000000     1.398000000     0.798000000
C     0.277000000     0.175000000     1.267000000
H     0.456000000     0.231000000     2.338000000
C    -0.723000000    -0.643000000     0.732000000
C    -1.490000000    -1.434000000     1.713000000
H    -0.799000000    -1.975000000     2.363000000
H    -2.117000000    -0.819000000     2.362000000
H    -2.034000000    -2.258000000     1.247000000
C    -0.869000000    -0.762000000    -0.623000000
H    -1.679000000    -1.385000000    -0.993000000
C    -0.194000000     0.026000000    -1.503000000
H    -0.356000000    -0.043000000    -2.575000000
C     0.844000000     0.849000000    -1.000000000
C     1.682000000     1.650000000    -1.942000000
O     1.500000000     1.640000000    -3.145000000
O     2.375000000     2.495000000    -1.443000000
