17
-93.74473
C     0.441000000     1.352000000    -0.468000000
H     0.639000000     2.363000000    -0.814000000
C    -0.674000000     1.047000000     0.284000000
H    -1.352000000     1.868000000     0.505000000
C    -1.061000000    -0.253000000     0.634000000
C    -2.252000000    -0.461000000     1.499000000
H    -3.039000000    -0.855000000     0.853000000
H    -2.018000000    -1.230000000     2.239000000
H    -2.484000000     0.429000000     2.087000000
C    -0.180000000    -1.259000000     0.320000000
H    -0.455000000    -2.272000000     0.603000000
C     1.060000000    -1.011000000    -0.365000000
H     1.766000000    -1.808000000    -0.584000000
C     1.328000000     0.295000000    -0.806000000
C     2.491000000     0.502000000    -1.731000000
O     3.203000000    -0.357000000    -2.073000000
O     2.586000000     1.642000000    -2.191000000
