17
-98.09089
C     0.283000000     1.206000000    -0.865000000
H     0.407000000     2.094000000    -1.481000000
C    -0.711000000     1.132000000     0.151000000
H    -1.319000000     1.977000000     0.460000000
C    -0.860000000    -0.091000000     0.829000000
C    -1.907000000    -0.243000000     1.928000000
H    -2.919000000    -0.186000000     1.521000000
H    -1.753000000    -1.143000000     2.526000000
H    -1.916000000     0.618000000     2.599000000
C    -0.003000000    -1.136000000     0.618000000
H    -0.182000000    -2.044000000     1.188000000
C     1.010000000    -1.045000000    -0.351000000
H     1.545000000    -1.988000000    -0.427000000
C     1.151000000     0.149000000    -1.134000000
C     2.160000000     0.214000000    -2.229000000
O     2.541000000    -0.828000000    -2.714000000
O     2.466000000     1.320000000    -2.621000000
