17
-92.56924
C     0.828000000     0.260000000    -1.209000000
H     1.402000000     0.488000000    -2.104000000
C     0.029000000     1.185000000    -0.543000000
H     0.015000000     2.171000000    -1.001000000
C    -0.744000000     0.802000000     0.567000000
C    -1.663000000     1.807000000     1.170000000
H    -1.419000000     2.756000000     0.687000000
H    -2.716000000     1.620000000     0.954000000
H    -1.483000000     1.815000000     2.247000000
C    -0.587000000    -0.485000000     1.160000000
H    -1.108000000    -0.744000000     2.078000000
C     0.202000000    -1.422000000     0.544000000
H     0.289000000    -2.404000000     1.003000000
C     0.933000000    -1.048000000    -0.611000000
C     1.801000000    -2.022000000    -1.401000000
O     1.502000000    -3.176000000    -1.495000000
O     2.716000000    -1.606000000    -2.054000000
