17
-93.89204
C     0.843000000    -0.112000000    -1.163000000
H     1.479000000    -0.015000000    -2.039000000
C     0.500000000     1.088000000    -0.524000000
H     0.819000000     2.052000000    -0.911000000
C    -0.355000000     1.032000000     0.557000000
C    -0.644000000     2.339000000     1.191000000
H    -1.037000000     2.256000000     2.207000000
H     0.217000000     2.975000000     1.408000000
H    -1.272000000     2.827000000     0.442000000
C    -0.743000000    -0.205000000     1.109000000
H    -1.303000000    -0.208000000     2.041000000
C    -0.496000000    -1.377000000     0.418000000
H    -0.787000000    -2.302000000     0.908000000
C     0.287000000    -1.347000000    -0.747000000
C     0.773000000    -2.651000000    -1.422000000
O     0.522000000    -3.702000000    -0.895000000
O     1.190000000    -2.648000000    -2.578000000
