17
-94.86536
C     0.112000000    -0.115000000    -1.414000000
H     0.101000000    -0.003000000    -2.495000000
C    -0.063000000     1.053000000    -0.665000000
H    -0.224000000     1.961000000    -1.240000000
C    -0.087000000     1.049000000     0.691000000
C    -0.261000000     2.408000000     1.339000000
H     0.715000000     2.893000000     1.398000000
H    -1.040000000     2.991000000     0.842000000
H    -0.603000000     2.285000000     2.369000000
C    -0.034000000    -0.224000000     1.336000000
H     0.028000000    -0.264000000     2.421000000
C     0.057000000    -1.406000000     0.619000000
H    -0.002000000    -2.361000000     1.135000000
C     0.225000000    -1.361000000    -0.819000000
C     0.279000000    -2.624000000    -1.649000000
O     0.460000000    -3.645000000    -1.018000000
O     0.337000000    -2.633000000    -2.851000000
