17
-85.57972
C     0.790000000    -0.517000000     1.068000000
H     1.371000000    -0.754000000     1.956000000
C    -0.180000000     0.496000000     1.165000000
H    -0.368000000     0.939000000     2.140000000
C    -0.961000000     0.749000000     0.091000000
C    -2.037000000     1.807000000     0.234000000
H    -1.645000000     2.731000000     0.664000000
H    -2.437000000     2.003000000    -0.763000000
H    -2.754000000     1.469000000     0.984000000
C    -0.682000000     0.197000000    -1.107000000
H    -1.191000000     0.465000000    -2.029000000
C     0.404000000    -0.681000000    -1.226000000
H     0.720000000    -1.049000000    -2.199000000
C     1.155000000    -1.086000000    -0.118000000
C     2.297000000    -1.971000000    -0.256000000
O     2.678000000    -2.356000000    -1.315000000
O     2.832000000    -2.442000000     0.715000000
