17
-97.28437
C     0.039000000    -0.012000000    -1.444000000
H     0.100000000     0.109000000    -2.523000000
C     0.209000000     1.055000000    -0.650000000
H     0.255000000     2.078000000    -1.015000000
C     0.187000000     0.903000000     0.750000000
C     0.087000000     2.241000000     1.497000000
H    -0.856000000     2.549000000     1.953000000
H     0.881000000     2.289000000     2.246000000
H     0.302000000     3.021000000     0.764000000
C     0.062000000    -0.298000000     1.371000000
H    -0.119000000    -0.376000000     2.440000000
C    -0.096000000    -1.447000000     0.538000000
H    -0.275000000    -2.413000000     1.004000000
C    -0.064000000    -1.277000000    -0.852000000
C    -0.181000000    -2.486000000    -1.793000000
O    -0.324000000    -3.620000000    -1.293000000
O    -0.201000000    -2.313000000    -2.997000000
