17
-97.78374
C     1.478000000    -0.103000000    -0.057000000
H     2.558000000     0.000000000    -0.118000000
C     0.693000000     0.952000000    -0.650000000
H     1.178000000     1.777000000    -1.164000000
C    -0.653000000     0.922000000    -0.527000000
C    -1.533000000     1.917000000    -1.234000000
H    -1.144000000     2.904000000    -0.974000000
H    -1.585000000     1.751000000    -2.312000000
H    -2.537000000     1.852000000    -0.811000000
C    -1.230000000    -0.122000000     0.185000000
H    -2.289000000    -0.053000000     0.419000000
C    -0.495000000    -1.125000000     0.804000000
H    -0.990000000    -1.974000000     1.270000000
C     0.845000000    -1.165000000     0.673000000
C     1.680000000    -2.254000000     1.273000000
O     1.123000000    -3.281000000     1.679000000
O     2.897000000    -2.004000000     1.536000000
