17
-96.51198
C     0.435000000    -1.350000000     0.418000000
H     0.882000000    -2.321000000     0.615000000
C     1.029000000    -0.155000000     0.832000000
H     1.938000000    -0.151000000     1.429000000
C     0.469000000     1.042000000     0.502000000
C     1.045000000     2.346000000     0.844000000
H     1.712000000     2.634000000     0.029000000
H     0.253000000     3.065000000     1.062000000
H     1.660000000     2.329000000     1.747000000
C    -0.659000000     1.045000000    -0.355000000
H    -1.066000000     2.026000000    -0.585000000
C    -1.167000000    -0.110000000    -0.866000000
H    -1.941000000    -0.060000000    -1.628000000
C    -0.683000000    -1.359000000    -0.432000000
C    -1.147000000    -2.655000000    -1.037000000
O    -2.215000000    -2.653000000    -1.683000000
O    -0.548000000    -3.665000000    -0.899000000
