17
-97.57322
C     0.986000000    -0.465000000    -0.980000000
H     1.797000000    -0.823000000    -1.609000000
C     1.181000000     0.536000000    -0.044000000
H     2.173000000     0.978000000    -0.049000000
C     0.174000000     0.950000000     0.815000000
C     0.399000000     2.071000000     1.802000000
H    -0.280000000     2.918000000     1.684000000
H     0.243000000     1.706000000     2.819000000
H     1.409000000     2.478000000     1.712000000
C    -1.038000000     0.250000000     0.734000000
H    -1.870000000     0.638000000     1.316000000
C    -1.268000000    -0.838000000    -0.141000000
H    -2.198000000    -1.393000000    -0.048000000
C    -0.254000000    -1.082000000    -1.118000000
C    -0.441000000    -2.324000000    -2.044000000
O    -1.483000000    -2.908000000    -2.031000000
O     0.465000000    -2.697000000    -2.814000000
