17
-94.51794
C     1.081000000    -0.007000000     0.972000000
H     1.766000000    -0.108000000     1.810000000
C    -0.050000000     0.785000000     1.088000000
H    -0.234000000     1.282000000     2.037000000
C    -1.025000000     0.746000000     0.092000000
C    -2.284000000     1.466000000     0.227000000
H    -3.093000000     0.744000000     0.352000000
H    -2.262000000     2.098000000     1.117000000
H    -2.396000000     2.014000000    -0.711000000
C    -0.824000000    -0.076000000    -1.047000000
H    -1.652000000    -0.206000000    -1.738000000
C     0.407000000    -0.833000000    -1.129000000
H     0.485000000    -1.542000000    -1.948000000
C     1.336000000    -0.799000000    -0.182000000
C     2.607000000    -1.576000000    -0.302000000
O     2.899000000    -2.075000000    -1.365000000
O     3.235000000    -1.911000000     0.727000000
