17
-92.59778
C     1.175000000    -0.570000000    -0.789000000
H     2.100000000    -0.853000000    -1.285000000
C     1.208000000     0.238000000     0.366000000
H     2.161000000     0.332000000     0.881000000
C     0.112000000     0.618000000     1.058000000
C     0.199000000     1.299000000     2.377000000
H     1.152000000     1.182000000     2.898000000
H     0.011000000     2.369000000     2.268000000
H    -0.570000000     0.907000000     3.045000000
C    -1.145000000     0.398000000     0.530000000
H    -2.052000000     0.762000000     1.007000000
C    -1.238000000    -0.245000000    -0.710000000
H    -2.135000000    -0.110000000    -1.309000000
C    -0.104000000    -0.788000000    -1.352000000
C    -0.229000000    -1.543000000    -2.714000000
O    -1.370000000    -1.888000000    -3.071000000
O     0.731000000    -2.101000000    -3.208000000
