17
-90.58521
C     0.995000000    -0.306000000    -1.087000000
H     1.803000000    -0.402000000    -1.807000000
C     1.179000000     0.531000000     0.025000000
H     2.139000000     0.950000000     0.313000000
C     0.108000000     0.815000000     0.853000000
C     0.383000000     1.741000000     2.120000000
H     1.326000000     1.452000000     2.591000000
H     0.422000000     2.801000000     1.858000000
H    -0.387000000     1.684000000     2.892000000
C    -1.148000000     0.275000000     0.572000000
H    -1.932000000     0.460000000     1.302000000
C    -1.262000000    -0.746000000    -0.368000000
H    -2.242000000    -1.209000000    -0.456000000
C    -0.209000000    -1.036000000    -1.246000000
C    -0.368000000    -2.029000000    -2.264000000
O    -1.395000000    -2.679000000    -2.348000000
O     0.590000000    -2.295000000    -2.946000000
