17
-93.40532
C     1.454000000     0.024000000    -0.018000000
H     2.540000000     0.037000000    -0.033000000
C     0.706000000    -0.069000000     1.148000000
H     1.204000000    -0.255000000     2.096000000
C    -0.683000000    -0.077000000     1.019000000
C    -1.540000000    -0.161000000     2.252000000
H    -1.343000000    -1.141000000     2.692000000
H    -1.253000000     0.554000000     3.026000000
H    -2.589000000    -0.088000000     1.957000000
C    -1.302000000     0.100000000    -0.203000000
H    -2.371000000     0.140000000    -0.395000000
C    -0.534000000     0.232000000    -1.341000000
H    -1.035000000     0.288000000    -2.304000000
C     0.866000000     0.030000000    -1.285000000
C     1.738000000     0.164000000    -2.522000000
O     1.293000000     0.502000000    -3.624000000
O     2.842000000    -0.273000000    -2.472000000
