17
-92.87057
C     1.044000000    -0.401000000    -0.937000000
H     1.887000000    -0.662000000    -1.572000000
C     1.167000000     0.196000000     0.312000000
H     2.196000000     0.302000000     0.645000000
C     0.096000000     0.531000000     1.122000000
C     0.397000000     1.001000000     2.540000000
H    -0.483000000     1.322000000     3.102000000
H     1.023000000     0.369000000     3.174000000
H     0.917000000     1.961000000     2.516000000
C    -1.161000000     0.233000000     0.620000000
H    -2.012000000     0.283000000     1.295000000
C    -1.288000000    -0.285000000    -0.680000000
H    -2.268000000    -0.451000000    -1.120000000
C    -0.217000000    -0.570000000    -1.457000000
C    -0.371000000    -1.078000000    -2.837000000
O    -1.483000000    -1.138000000    -3.299000000
O     0.561000000    -1.617000000    -3.416000000
