17
-97.74557
C     0.404000000     1.425000000    -0.476000000
H     0.653000000     2.467000000    -0.656000000
C    -0.720000000     1.028000000     0.257000000
H    -1.378000000     1.842000000     0.551000000
C    -0.989000000    -0.230000000     0.666000000
C    -2.304000000    -0.585000000     1.396000000
H    -3.050000000    -0.911000000     0.668000000
H    -2.216000000    -1.444000000     2.064000000
H    -2.675000000     0.246000000     2.001000000
C    -0.157000000    -1.280000000     0.303000000
H    -0.280000000    -2.325000000     0.579000000
C     1.007000000    -0.931000000    -0.392000000
H     1.682000000    -1.767000000    -0.553000000
C     1.346000000     0.383000000    -0.797000000
C     2.571000000     0.618000000    -1.647000000
O     3.334000000    -0.293000000    -1.877000000
O     2.775000000     1.761000000    -2.086000000
