17
-90.47080
C     0.732000000     1.213000000    -0.501000000
H     1.172000000     2.189000000    -0.685000000
C    -0.569000000     1.165000000    -0.051000000
H    -1.091000000     2.088000000     0.186000000
C    -1.143000000     0.010000000     0.233000000
C    -2.591000000     0.019000000     0.650000000
H    -2.859000000    -0.925000000     1.128000000
H    -2.787000000     0.734000000     1.452000000
H    -3.281000000     0.251000000    -0.164000000
C    -0.478000000    -1.207000000     0.158000000
H    -0.983000000    -2.147000000     0.366000000
C     0.834000000    -1.229000000    -0.221000000
H     1.458000000    -2.116000000    -0.143000000
C     1.480000000    -0.037000000    -0.493000000
C     2.971000000    -0.019000000    -0.649000000
O     3.583000000    -1.013000000    -0.379000000
O     3.552000000     1.031000000    -0.883000000
