17
-97.42274
C     0.391000000     1.367000000    -0.607000000
H     0.375000000     2.337000000    -1.098000000
C    -0.443000000     1.077000000     0.494000000
H    -0.987000000     1.852000000     1.029000000
C    -0.698000000    -0.211000000     0.969000000
C    -1.735000000    -0.484000000     2.086000000
H    -1.828000000    -1.450000000     2.586000000
H    -1.726000000     0.260000000     2.884000000
H    -2.716000000    -0.431000000     1.609000000
C     0.062000000    -1.245000000     0.456000000
H     0.008000000    -2.226000000     0.923000000
C     0.873000000    -0.979000000    -0.643000000
H     1.415000000    -1.846000000    -1.012000000
C     1.003000000     0.289000000    -1.238000000
C     1.808000000     0.503000000    -2.484000000
O     1.971000000    -0.450000000    -3.227000000
O     2.233000000     1.633000000    -2.725000000
