17
-86.31971
C     0.906000000     1.083000000    -0.487000000
H     1.489000000     1.960000000    -0.756000000
C    -0.010000000     1.181000000     0.579000000
H    -0.003000000     2.156000000     1.059000000
C    -0.771000000     0.065000000     0.917000000
C    -1.833000000     0.194000000     2.013000000
H    -2.162000000    -0.786000000     2.365000000
H    -1.462000000     0.611000000     2.951000000
H    -2.778000000     0.691000000     1.782000000
C    -0.665000000    -1.051000000     0.200000000
H    -1.280000000    -1.920000000     0.420000000
C     0.249000000    -1.233000000    -0.833000000
H     0.339000000    -2.241000000    -1.230000000
C     1.046000000    -0.111000000    -1.184000000
C     2.009000000    -0.142000000    -2.339000000
O     2.089000000    -1.158000000    -2.948000000
O     2.843000000     0.702000000    -2.502000000
