17
-88.50134
C     1.018000000     0.553000000     0.933000000
H     1.749000000     0.867000000     1.674000000
C    -0.358000000     0.616000000     1.163000000
H    -0.710000000     0.860000000     2.162000000
C    -1.193000000     0.140000000     0.140000000
C    -2.695000000    -0.164000000     0.432000000
H    -3.263000000    -0.569000000    -0.409000000
H    -2.798000000    -0.903000000     1.229000000
H    -3.217000000     0.756000000     0.706000000
C    -0.638000000    -0.343000000    -1.043000000
H    -1.288000000    -0.685000000    -1.845000000
C     0.651000000    -0.414000000    -1.204000000
H     0.938000000    -0.855000000    -2.155000000
C     1.542000000     0.068000000    -0.292000000
C     3.001000000     0.069000000    -0.493000000
O     3.577000000    -0.191000000    -1.541000000
O     3.681000000     0.195000000     0.548000000
