17
-95.84432
C     1.334000000     0.458000000    -0.058000000
H     2.371000000     0.771000000     0.033000000
C     0.693000000    -0.017000000     1.095000000
H     1.237000000     0.071000000     2.032000000
C    -0.590000000    -0.511000000     0.980000000
C    -1.226000000    -1.319000000     2.124000000
H    -0.593000000    -2.177000000     2.360000000
H    -1.187000000    -0.798000000     3.083000000
H    -2.254000000    -1.637000000     1.936000000
C    -1.202000000    -0.447000000    -0.297000000
H    -2.242000000    -0.744000000    -0.401000000
C    -0.604000000     0.289000000    -1.392000000
H    -1.251000000     0.452000000    -2.250000000
C     0.701000000     0.724000000    -1.240000000
C     1.425000000     1.415000000    -2.371000000
O     0.767000000     1.752000000    -3.333000000
O     2.627000000     1.714000000    -2.306000000
