17
-94.03416
C     1.445000000     0.098000000     0.560000000
H     2.431000000     0.179000000     1.009000000
C     0.228000000     0.079000000     1.272000000
H     0.249000000     0.159000000     2.356000000
C    -1.029000000     0.050000000     0.696000000
C    -2.268000000    -0.074000000     1.527000000
H    -3.110000000     0.288000000     0.932000000
H    -2.393000000    -1.073000000     1.949000000
H    -2.183000000     0.597000000     2.384000000
C    -1.090000000    -0.138000000    -0.716000000
H    -2.050000000    -0.285000000    -1.203000000
C     0.085000000    -0.034000000    -1.498000000
H    -0.004000000    -0.027000000    -2.581000000
C     1.329000000     0.082000000    -0.859000000
C     2.480000000     0.063000000    -1.753000000
O     2.338000000    -0.372000000    -2.837000000
O     3.550000000     0.401000000    -1.235000000
