17
-94.93925
C     1.474000000     0.324000000     0.153000000
H     2.533000000     0.535000000     0.281000000
C     0.685000000    -0.318000000     1.121000000
H     1.082000000    -0.641000000     2.080000000
C    -0.641000000    -0.544000000     0.830000000
C    -1.517000000    -1.306000000     1.801000000
H    -2.578000000    -1.126000000     1.616000000
H    -1.301000000    -2.372000000     1.702000000
H    -1.266000000    -1.041000000     2.830000000
C    -1.254000000    -0.177000000    -0.372000000
H    -2.304000000    -0.295000000    -0.629000000
C    -0.465000000     0.398000000    -1.339000000
H    -0.904000000     0.690000000    -2.290000000
C     0.889000000     0.713000000    -1.041000000
C     1.665000000     1.512000000    -1.976000000
O     1.103000000     1.766000000    -2.997000000
O     2.800000000     1.882000000    -1.762000000
