17
-92.80951
C     1.399000000     0.322000000     0.370000000
H     2.407000000     0.510000000     0.731000000
C     0.596000000    -0.630000000     1.053000000
H     0.899000000    -1.157000000     1.954000000
C    -0.673000000    -0.857000000     0.556000000
C    -1.648000000    -1.853000000     1.223000000
H    -2.296000000    -2.245000000     0.437000000
H    -0.967000000    -2.612000000     1.613000000
H    -2.232000000    -1.181000000     1.855000000
C    -1.194000000    -0.149000000    -0.530000000
H    -2.184000000    -0.363000000    -0.926000000
C    -0.363000000     0.717000000    -1.183000000
H    -0.709000000     1.272000000    -2.050000000
C     0.924000000     1.048000000    -0.709000000
C     1.796000000     2.045000000    -1.354000000
O     1.256000000     2.916000000    -2.012000000
O     2.982000000     2.213000000    -1.020000000
