17
-90.64603
C     1.267000000     0.736000000     0.269000000
H     2.052000000     1.464000000     0.457000000
C     0.147000000     0.639000000     1.076000000
H     0.190000000     1.193000000     2.010000000
C    -0.950000000    -0.112000000     0.741000000
C    -2.124000000    -0.116000000     1.719000000
H    -2.955000000    -0.687000000     1.299000000
H    -1.990000000    -0.474000000     2.742000000
H    -2.496000000     0.898000000     1.881000000
C    -0.909000000    -0.956000000    -0.394000000
H    -1.682000000    -1.638000000    -0.740000000
C     0.167000000    -0.797000000    -1.254000000
H     0.078000000    -1.349000000    -2.186000000
C     1.279000000     0.079000000    -0.961000000
C     2.336000000     0.283000000    -1.956000000
O     2.314000000    -0.213000000    -3.027000000
O     3.274000000     1.044000000    -1.683000000
