17
-89.92442
C     0.989000000     1.102000000     0.401000000
H     1.624000000     1.855000000     0.859000000
C    -0.186000000     0.740000000     1.054000000
H    -0.409000000     1.311000000     1.951000000
C    -1.046000000    -0.311000000     0.606000000
C    -2.049000000    -0.850000000     1.517000000
H    -1.768000000    -0.575000000     2.536000000
H    -3.078000000    -0.529000000     1.340000000
H    -2.028000000    -1.940000000     1.468000000
C    -0.795000000    -0.868000000    -0.647000000
H    -1.453000000    -1.679000000    -0.949000000
C     0.252000000    -0.422000000    -1.444000000
H     0.350000000    -0.813000000    -2.454000000
C     1.179000000     0.471000000    -0.876000000
C     2.450000000     0.766000000    -1.627000000
O     2.875000000     0.016000000    -2.433000000
O     3.095000000     1.728000000    -1.304000000
