17
-87.57770
C     1.343000000    -0.126000000     0.610000000
H     2.270000000    -0.338000000     1.136000000
C     0.122000000    -0.204000000     1.278000000
H     0.139000000    -0.444000000     2.338000000
C    -1.077000000     0.015000000     0.554000000
C    -2.358000000    -0.280000000     1.378000000
H    -2.257000000    -0.237000000     2.465000000
H    -3.176000000     0.407000000     1.153000000
H    -2.759000000    -1.273000000     1.163000000
C    -1.035000000     0.214000000    -0.800000000
H    -2.005000000     0.302000000    -1.284000000
C     0.164000000     0.315000000    -1.476000000
H     0.215000000     0.585000000    -2.528000000
C     1.382000000     0.202000000    -0.774000000
C     2.655000000     0.282000000    -1.495000000
O     2.697000000     0.708000000    -2.643000000
O     3.673000000    -0.129000000    -1.079000000
