17
-81.91214
C     1.102000000     0.962000000    -0.092000000
H     1.921000000     1.677000000    -0.078000000
C     0.507000000     0.508000000     1.109000000
H     0.770000000     0.911000000     2.084000000
C    -0.520000000    -0.477000000     1.043000000
C    -1.262000000    -0.852000000     2.290000000
H    -0.644000000    -1.589000000     2.807000000
H    -1.170000000     0.098000000     2.820000000
H    -2.266000000    -1.082000000     1.927000000
C    -0.945000000    -0.918000000    -0.196000000
H    -1.813000000    -1.570000000    -0.248000000
C    -0.399000000    -0.447000000    -1.367000000
H    -0.882000000    -0.840000000    -2.257000000
C     0.739000000     0.395000000    -1.313000000
C     1.439000000     0.896000000    -2.490000000
O     1.297000000     0.449000000    -3.609000000
O     2.133000000     1.877000000    -2.437000000
