17
-85.98907
C     1.401000000     0.492000000    -0.003000000
H     2.447000000     0.739000000     0.161000000
C     0.744000000    -0.027000000     1.128000000
H     1.232000000    -0.131000000     2.093000000
C    -0.546000000    -0.470000000     1.028000000
C    -1.318000000    -1.039000000     2.168000000
H    -1.055000000    -2.098000000     2.182000000
H    -1.045000000    -0.524000000     3.091000000
H    -2.364000000    -0.834000000     1.933000000
C    -1.163000000    -0.343000000    -0.211000000
H    -2.158000000    -0.765000000    -0.326000000
C    -0.565000000     0.257000000    -1.335000000
H    -1.220000000     0.164000000    -2.197000000
C     0.764000000     0.662000000    -1.293000000
C     1.455000000     1.138000000    -2.482000000
O     0.872000000     1.123000000    -3.534000000
O     2.519000000     1.658000000    -2.408000000
