17
-92.34807
C     1.392000000     0.387000000     0.481000000
H     2.323000000     0.756000000     0.902000000
C     0.220000000     0.353000000     1.218000000
H     0.269000000     0.631000000     2.268000000
C    -0.973000000    -0.052000000     0.691000000
C    -2.178000000    -0.069000000     1.579000000
H    -2.077000000    -0.838000000     2.348000000
H    -2.253000000     0.834000000     2.189000000
H    -3.083000000    -0.230000000     0.990000000
C    -1.113000000    -0.355000000    -0.664000000
H    -1.984000000    -0.831000000    -1.106000000
C     0.052000000    -0.302000000    -1.427000000
H    -0.004000000    -0.725000000    -2.426000000
C     1.295000000    -0.009000000    -0.880000000
C     2.366000000     0.185000000    -1.871000000
O     2.498000000    -0.701000000    -2.719000000
O     3.245000000     0.961000000    -1.573000000
