17
-90.82530
C     1.350000000     0.587000000    -0.076000000
H     2.381000000     0.927000000    -0.135000000
C     0.564000000     0.614000000     1.120000000
H     0.992000000     0.890000000     2.081000000
C    -0.735000000     0.031000000     1.058000000
C    -1.655000000    -0.239000000     2.202000000
H    -2.653000000    -0.569000000     1.909000000
H    -1.158000000    -1.047000000     2.744000000
H    -1.686000000     0.655000000     2.828000000
C    -1.209000000    -0.378000000    -0.185000000
H    -2.164000000    -0.898000000    -0.208000000
C    -0.378000000    -0.359000000    -1.356000000
H    -0.769000000    -0.752000000    -2.292000000
C     0.870000000     0.232000000    -1.296000000
C     1.823000000     0.212000000    -2.480000000
O     1.421000000    -0.263000000    -3.568000000
O     3.005000000     0.353000000    -2.343000000
