17
-91.95237
C     1.197000000     0.775000000    -0.003000000
H     2.127000000     1.324000000     0.123000000
C     0.336000000     0.663000000     1.090000000
H     0.463000000     1.288000000     1.970000000
C    -0.777000000    -0.138000000     0.959000000
C    -1.697000000    -0.243000000     2.072000000
H    -1.616000000     0.650000000     2.696000000
H    -2.740000000    -0.359000000     1.771000000
H    -1.371000000    -1.163000000     2.562000000
C    -1.022000000    -0.842000000    -0.238000000
H    -1.908000000    -1.472000000    -0.246000000
C    -0.176000000    -0.757000000    -1.351000000
H    -0.430000000    -1.243000000    -2.290000000
C     0.923000000     0.151000000    -1.229000000
C     1.903000000     0.424000000    -2.351000000
O     2.127000000    -0.399000000    -3.251000000
O     2.662000000     1.347000000    -2.290000000
