17
-101.70412
C     1.063000000    -0.995000000    -0.302000000
H     1.905000000    -1.652000000    -0.508000000
C     0.853000000    -0.374000000     0.921000000
H     1.533000000    -0.540000000     1.753000000
C    -0.176000000     0.530000000     1.064000000
C    -0.373000000     1.167000000     2.461000000
H     0.596000000     1.552000000     2.783000000
H    -1.019000000     2.046000000     2.499000000
H    -0.879000000     0.447000000     3.109000000
C    -1.047000000     0.843000000     0.017000000
H    -1.808000000     1.612000000     0.127000000
C    -0.798000000     0.254000000    -1.203000000
H    -1.496000000     0.448000000    -2.014000000
C     0.250000000    -0.648000000    -1.423000000
C     0.410000000    -1.389000000    -2.752000000
O    -0.414000000    -1.198000000    -3.618000000
O     1.399000000    -2.110000000    -2.914000000
