17
-95.25965
C     1.325000000    -0.593000000     0.178000000
H     2.235000000    -1.106000000     0.479000000
C     0.732000000     0.141000000     1.174000000
H     1.207000000     0.305000000     2.138000000
C    -0.492000000     0.698000000     0.865000000
C    -1.293000000     1.506000000     1.886000000
H    -0.892000000     2.515000000     2.007000000
H    -2.289000000     1.725000000     1.496000000
H    -1.385000000     0.966000000     2.830000000
C    -1.082000000     0.558000000    -0.444000000
H    -2.051000000     0.988000000    -0.679000000
C    -0.441000000    -0.244000000    -1.425000000
H    -0.954000000    -0.381000000    -2.373000000
C     0.774000000    -0.874000000    -1.104000000
C     1.366000000    -1.809000000    -2.079000000
O     0.731000000    -2.212000000    -3.034000000
O     2.502000000    -2.187000000    -1.917000000
