17
-100.32413
C     1.135000000    -0.835000000    -0.316000000
H     2.107000000    -1.302000000    -0.454000000
C     0.991000000    -0.006000000     0.763000000
H     1.807000000     0.064000000     1.478000000
C    -0.191000000     0.748000000     0.928000000
C    -0.196000000     1.637000000     2.195000000
H    -1.197000000     1.944000000     2.506000000
H     0.254000000     1.077000000     3.017000000
H     0.442000000     2.497000000     1.982000000
C    -1.211000000     0.701000000     0.020000000
H    -2.070000000     1.366000000     0.012000000
C    -1.086000000    -0.187000000    -1.039000000
H    -1.833000000    -0.299000000    -1.821000000
C     0.066000000    -0.969000000    -1.213000000
C     0.264000000    -1.906000000    -2.398000000
O    -0.693000000    -2.359000000    -2.964000000
O     1.417000000    -2.178000000    -2.695000000
