17
-94.01736
C     0.355000000    -0.711000000     1.208000000
H     0.583000000    -1.164000000     2.169000000
C    -0.929000000    -0.137000000     0.958000000
H    -1.709000000    -0.304000000     1.696000000
C    -1.099000000     0.619000000    -0.208000000
C    -2.315000000     1.413000000    -0.503000000
H    -3.100000000     0.858000000    -1.021000000
H    -2.850000000     1.616000000     0.427000000
H    -2.013000000     2.313000000    -1.042000000
C    -0.023000000     0.636000000    -1.125000000
H    -0.113000000     1.256000000    -2.013000000
C     1.219000000     0.025000000    -0.824000000
H     2.006000000    -0.031000000    -1.572000000
C     1.358000000    -0.705000000     0.293000000
C     2.540000000    -1.664000000     0.482000000
O     3.231000000    -1.819000000    -0.492000000
O     2.854000000    -2.198000000     1.563000000
