17
-84.62934
C     1.122000000    -1.035000000     0.045000000
H     2.028000000    -1.633000000     0.105000000
C     0.695000000    -0.077000000     1.119000000
H     1.117000000    -0.221000000     2.110000000
C    -0.377000000     0.748000000     0.964000000
C    -0.860000000     1.550000000     2.090000000
H    -1.432000000     0.976000000     2.822000000
H    -0.002000000     1.993000000     2.600000000
H    -1.389000000     2.450000000     1.769000000
C    -0.946000000     0.807000000    -0.308000000
H    -1.801000000     1.471000000    -0.407000000
C    -0.600000000    -0.028000000    -1.344000000
H    -1.029000000     0.222000000    -2.311000000
C     0.381000000    -0.998000000    -1.214000000
C     0.913000000    -1.809000000    -2.354000000
O     0.353000000    -1.812000000    -3.446000000
O     1.833000000    -2.599000000    -2.241000000
