17
-88.56629
C     1.319000000    -0.700000000    -0.208000000
H     2.343000000    -1.048000000    -0.315000000
C     0.930000000    -0.069000000     0.942000000
H     1.580000000     0.168000000     1.780000000
C    -0.330000000     0.589000000     1.035000000
C    -0.861000000     1.301000000     2.258000000
H    -0.612000000     2.361000000     2.171000000
H    -1.931000000     1.118000000     2.376000000
H    -0.373000000     0.889000000     3.144000000
C    -1.137000000     0.457000000    -0.073000000
H    -2.093000000     0.973000000    -0.018000000
C    -0.840000000    -0.312000000    -1.153000000
H    -1.598000000    -0.249000000    -1.929000000
C     0.452000000    -0.857000000    -1.279000000
C     0.902000000    -1.427000000    -2.581000000
O     0.283000000    -1.240000000    -3.575000000
O     1.973000000    -1.949000000    -2.581000000
