17
-95.04949
C     1.205000000     0.279000000    -0.830000000
H     2.155000000     0.592000000    -1.255000000
C     0.557000000     1.198000000    -0.015000000
H     0.927000000     2.209000000     0.129000000
C    -0.632000000     0.871000000     0.591000000
C    -1.252000000     1.830000000     1.564000000
H    -2.024000000     2.337000000     0.982000000
H    -1.720000000     1.258000000     2.368000000
H    -0.501000000     2.534000000     1.930000000
C    -1.167000000    -0.457000000     0.547000000
H    -2.016000000    -0.713000000     1.175000000
C    -0.430000000    -1.424000000    -0.130000000
H    -0.711000000    -2.473000000    -0.086000000
C     0.717000000    -1.021000000    -0.850000000
C     1.478000000    -2.065000000    -1.736000000
O     1.080000000    -3.243000000    -1.862000000
O     2.339000000    -1.704000000    -2.518000000
