17
-89.09872
C    -0.913000000    -1.146000000     0.224000000
H    -1.573000000    -1.959000000     0.514000000
C    -1.083000000     0.125000000     0.780000000
H    -1.989000000     0.407000000     1.311000000
C    -0.158000000     1.133000000     0.446000000
C    -0.469000000     2.503000000     0.894000000
H    -0.297000000     2.730000000     1.948000000
H     0.206000000     3.120000000     0.297000000
H    -1.521000000     2.743000000     0.726000000
C     0.929000000     0.887000000    -0.413000000
H     1.550000000     1.727000000    -0.715000000
C     1.098000000    -0.413000000    -0.901000000
H     1.932000000    -0.617000000    -1.568000000
C     0.244000000    -1.450000000    -0.510000000
C     0.569000000    -2.859000000    -0.957000000
O     1.674000000    -3.188000000    -1.302000000
O    -0.196000000    -3.747000000    -0.767000000
