17
-96.64093
C     1.112000000    -0.639000000     0.830000000
H     1.751000000    -1.179000000     1.523000000
C     0.051000000     0.126000000     1.343000000
H    -0.162000000     0.183000000     2.407000000
C    -0.887000000     0.747000000     0.462000000
C    -2.091000000     1.557000000     0.902000000
H    -1.838000000     2.457000000     1.467000000
H    -2.556000000     2.016000000     0.026000000
H    -2.802000000     0.997000000     1.513000000
C    -0.740000000     0.474000000    -0.866000000
H    -1.395000000     0.994000000    -1.560000000
C     0.307000000    -0.278000000    -1.397000000
H     0.436000000    -0.352000000    -2.474000000
C     1.224000000    -0.870000000    -0.524000000
C     2.242000000    -1.821000000    -1.044000000
O     2.407000000    -1.902000000    -2.271000000
O     2.939000000    -2.504000000    -0.330000000
