17
-99.55279
C     0.952000000    -0.277000000    -1.071000000
H     1.668000000    -0.408000000    -1.878000000
C     1.005000000     0.843000000    -0.253000000
H     1.780000000     1.597000000    -0.360000000
C     0.052000000     0.933000000     0.796000000
C     0.205000000     2.076000000     1.753000000
H     1.156000000     1.935000000     2.270000000
H     0.174000000     3.024000000     1.212000000
H    -0.636000000     2.164000000     2.444000000
C    -0.954000000    -0.062000000     0.928000000
H    -1.684000000    -0.041000000     1.733000000
C    -1.072000000    -1.048000000     0.006000000
H    -1.904000000    -1.729000000     0.167000000
C    -0.054000000    -1.207000000    -0.970000000
C    -0.167000000    -2.348000000    -1.955000000
O    -1.268000000    -2.873000000    -2.090000000
O     0.740000000    -2.576000000    -2.740000000
