17
-92.75580
C     1.212000000    -0.826000000    -0.068000000
H     2.163000000    -1.352000000    -0.095000000
C     1.129000000     0.554000000     0.298000000
H     2.033000000     1.001000000     0.703000000
C    -0.007000000     1.272000000     0.088000000
C    -0.116000000     2.673000000     0.638000000
H     0.192000000     2.664000000     1.685000000
H     0.470000000     3.421000000     0.100000000
H    -1.160000000     2.991000000     0.619000000
C    -1.176000000     0.534000000    -0.307000000
H    -2.144000000     1.028000000    -0.335000000
C    -1.087000000    -0.815000000    -0.507000000
H    -2.044000000    -1.305000000    -0.665000000
C     0.103000000    -1.544000000    -0.420000000
C     0.091000000    -3.016000000    -0.557000000
O    -0.816000000    -3.749000000    -0.281000000
O     1.165000000    -3.536000000    -0.894000000
