17
-85.60437
C     1.114000000     0.382000000     0.889000000
H     1.854000000     0.836000000     1.544000000
C    -0.231000000     0.404000000     1.279000000
H    -0.563000000     0.956000000     2.154000000
C    -1.162000000    -0.224000000     0.449000000
C    -2.663000000    -0.171000000     0.681000000
H    -3.034000000     0.018000000     1.690000000
H    -3.129000000     0.571000000     0.029000000
H    -3.093000000    -1.067000000     0.228000000
C    -0.731000000    -0.623000000    -0.782000000
H    -1.509000000    -0.934000000    -1.474000000
C     0.555000000    -0.363000000    -1.275000000
H     0.881000000    -0.394000000    -2.311000000
C     1.572000000     0.069000000    -0.412000000
C     3.008000000     0.181000000    -0.824000000
O     3.304000000     0.108000000    -1.947000000
O     3.821000000     0.245000000     0.078000000
