17
-79.42564
C     1.342000000    -0.785000000    -0.289000000
H     2.264000000    -1.300000000    -0.546000000
C     0.791000000     0.379000000    -0.949000000
H     1.377000000     0.814000000    -1.755000000
C    -0.399000000     0.945000000    -0.693000000
C    -0.945000000     2.122000000    -1.465000000
H    -1.362000000     1.701000000    -2.382000000
H    -1.610000000     2.829000000    -0.964000000
H    -0.148000000     2.812000000    -1.749000000
C    -1.190000000     0.395000000     0.331000000
H    -2.133000000     0.882000000     0.566000000
C    -0.739000000    -0.622000000     1.130000000
H    -1.318000000    -1.028000000     1.956000000
C     0.511000000    -1.241000000     0.803000000
C     1.043000000    -2.272000000     1.814000000
O     0.348000000    -2.930000000     2.509000000
O     2.164000000    -2.701000000     1.684000000
