17
-94.63078
C     0.306000000    -1.356000000     0.661000000
H     0.622000000    -2.275000000     1.148000000
C     1.175000000    -0.299000000     0.536000000
H     2.204000000    -0.397000000     0.871000000
C     0.867000000     0.909000000    -0.143000000
C     1.814000000     1.987000000    -0.536000000
H     2.805000000     1.597000000    -0.778000000
H     1.374000000     2.542000000    -1.367000000
H     1.977000000     2.770000000     0.207000000
C    -0.455000000     1.053000000    -0.537000000
H    -0.774000000     2.011000000    -0.940000000
C    -1.398000000     0.032000000    -0.323000000
H    -2.443000000     0.150000000    -0.598000000
C    -1.019000000    -1.171000000     0.278000000
C    -2.050000000    -2.255000000     0.414000000
O    -3.087000000    -2.163000000    -0.152000000
O    -1.913000000    -3.132000000     1.261000000
