17
-94.31595
C     0.258000000    -1.432000000    -0.029000000
H     0.506000000    -2.488000000     0.047000000
C     1.163000000    -0.479000000     0.486000000
H     2.080000000    -0.862000000     0.927000000
C     0.780000000     0.854000000     0.400000000
C     1.693000000     1.916000000     0.965000000
H     1.258000000     2.913000000     1.060000000
H     1.841000000     1.568000000     1.989000000
H     2.624000000     1.964000000     0.397000000
C    -0.390000000     1.239000000    -0.343000000
H    -0.598000000     2.287000000    -0.543000000
C    -1.300000000     0.244000000    -0.699000000
H    -2.111000000     0.573000000    -1.343000000
C    -1.008000000    -1.054000000    -0.541000000
C    -1.989000000    -2.135000000    -0.889000000
O    -2.819000000    -1.982000000    -1.730000000
O    -1.993000000    -3.132000000    -0.146000000
