17
-95.15298
C     0.631000000    -1.251000000    -0.550000000
H     1.252000000    -2.093000000    -0.845000000
C     1.278000000    -0.015000000    -0.233000000
H     2.360000000     0.028000000    -0.332000000
C     0.595000000     1.067000000     0.293000000
C     1.372000000     2.370000000     0.611000000
H     0.611000000     3.153000000     0.578000000
H     1.880000000     2.390000000     1.577000000
H     2.101000000     2.703000000    -0.131000000
C    -0.774000000     0.945000000     0.426000000
H    -1.381000000     1.801000000     0.707000000
C    -1.434000000    -0.312000000     0.290000000
H    -2.506000000    -0.490000000     0.291000000
C    -0.738000000    -1.352000000    -0.298000000
C    -1.551000000    -2.611000000    -0.714000000
O    -2.791000000    -2.708000000    -0.598000000
O    -0.899000000    -3.627000000    -1.079000000
