17
-91.39997
C     1.051000000    -0.738000000     0.903000000
H     1.769000000    -1.271000000     1.522000000
C     1.318000000     0.329000000     0.011000000
H     2.313000000     0.760000000    -0.056000000
C     0.307000000     0.896000000    -0.806000000
C     0.590000000     2.062000000    -1.641000000
H     0.945000000     2.907000000    -1.048000000
H     1.208000000     1.829000000    -2.510000000
H    -0.372000000     2.298000000    -2.101000000
C    -0.995000000     0.408000000    -0.754000000
H    -1.773000000     0.912000000    -1.322000000
C    -1.279000000    -0.719000000     0.031000000
H    -2.328000000    -0.975000000     0.149000000
C    -0.261000000    -1.179000000     0.911000000
C    -0.676000000    -2.290000000     1.911000000
O    -1.848000000    -2.627000000     1.951000000
O     0.028000000    -2.598000000     2.846000000
