17
-89.48703
C    -0.157000000    -0.481000000     1.345000000
H    -0.194000000    -0.890000000     2.351000000
C     0.565000000     0.619000000     1.091000000
H     1.055000000     1.217000000     1.854000000
C     0.700000000     0.983000000    -0.244000000
C     1.471000000     2.169000000    -0.642000000
H     2.380000000     1.882000000    -1.176000000
H     0.777000000     2.783000000    -1.219000000
H     1.771000000     2.733000000     0.243000000
C     0.093000000     0.274000000    -1.261000000
H     0.277000000     0.524000000    -2.303000000
C    -0.710000000    -0.843000000    -0.961000000
H    -1.184000000    -1.415000000    -1.754000000
C    -0.842000000    -1.271000000     0.329000000
C    -1.706000000    -2.456000000     0.669000000
O    -2.315000000    -3.123000000    -0.142000000
O    -1.979000000    -2.711000000     1.818000000
