17
-94.20072
C     0.602000000     1.426000000     0.125000000
H     1.047000000     2.410000000     0.254000000
C    -0.544000000     0.911000000     0.821000000
H    -0.964000000     1.478000000     1.648000000
C    -0.961000000    -0.373000000     0.554000000
C    -2.244000000    -0.938000000     1.276000000
H    -2.649000000    -1.831000000     0.795000000
H    -1.998000000    -1.370000000     2.248000000
H    -3.033000000    -0.195000000     1.410000000
C    -0.378000000    -1.159000000    -0.350000000
H    -0.791000000    -2.094000000    -0.721000000
C     0.738000000    -0.689000000    -1.026000000
H     1.210000000    -1.375000000    -1.726000000
C     1.289000000     0.540000000    -0.676000000
C     2.562000000     0.958000000    -1.367000000
O     2.906000000     0.346000000    -2.350000000
O     3.208000000     1.955000000    -0.913000000
