17
-95.26457
C     0.516000000     0.569000000     1.227000000
H     1.076000000     0.988000000     2.059000000
C     0.436000000     1.188000000    -0.038000000
H     0.725000000     2.234000000    -0.096000000
C    -0.179000000     0.596000000    -1.121000000
C    -0.489000000     1.371000000    -2.280000000
H    -0.617000000     2.406000000    -1.957000000
H     0.234000000     1.431000000    -3.095000000
H    -1.437000000     1.104000000    -2.753000000
C    -0.535000000    -0.763000000    -0.967000000
H    -1.000000000    -1.383000000    -1.729000000
C    -0.287000000    -1.421000000     0.217000000
H    -0.313000000    -2.503000000     0.313000000
C     0.222000000    -0.778000000     1.331000000
C     0.489000000    -1.491000000     2.603000000
O     0.163000000    -2.711000000     2.780000000
O     0.997000000    -0.831000000     3.509000000
