17
-88.90927
C     0.741000000     0.398000000     1.211000000
H     1.463000000     0.675000000     1.975000000
C     1.214000000    -0.235000000     0.074000000
H     2.246000000    -0.569000000    -0.004000000
C     0.421000000    -0.606000000    -1.013000000
C     1.075000000    -1.177000000    -2.292000000
H     1.738000000    -2.003000000    -2.026000000
H     0.239000000    -1.604000000    -2.849000000
H     1.751000000    -0.531000000    -2.856000000
C    -0.903000000    -0.243000000    -0.918000000
H    -1.616000000    -0.427000000    -1.718000000
C    -1.468000000     0.254000000     0.285000000
H    -2.525000000     0.478000000     0.402000000
C    -0.588000000     0.676000000     1.277000000
C    -1.115000000     1.429000000     2.473000000
O    -2.216000000     1.898000000     2.483000000
O    -0.461000000     1.588000000     3.491000000
