17
-91.54255
C     0.800000000     0.551000000     1.128000000
H     1.578000000     0.789000000     1.849000000
C     1.263000000    -0.148000000     0.050000000
H     2.332000000    -0.343000000     0.021000000
C     0.456000000    -0.540000000    -1.020000000
C     1.015000000    -1.266000000    -2.193000000
H     1.039000000    -2.313000000    -1.883000000
H     0.359000000    -1.247000000    -3.065000000
H     2.043000000    -1.014000000    -2.462000000
C    -0.899000000    -0.253000000    -0.928000000
H    -1.590000000    -0.594000000    -1.694000000
C    -1.409000000     0.341000000     0.233000000
H    -2.468000000     0.588000000     0.248000000
C    -0.555000000     0.797000000     1.241000000
C    -1.131000000     1.467000000     2.460000000
O    -2.338000000     1.661000000     2.549000000
O    -0.495000000     1.527000000     3.458000000
