17
-93.40897
C     0.751000000     0.935000000     0.839000000
H     1.386000000     1.628000000     1.386000000
C     1.293000000     0.289000000    -0.283000000
H     2.306000000     0.569000000    -0.559000000
C     0.461000000    -0.593000000    -1.008000000
C     0.729000000    -1.017000000    -2.386000000
H     1.692000000    -0.570000000    -2.639000000
H     0.942000000    -2.088000000    -2.409000000
H    -0.019000000    -0.674000000    -3.105000000
C    -0.782000000    -0.928000000    -0.501000000
H    -1.435000000    -1.637000000    -1.003000000
C    -1.290000000    -0.179000000     0.554000000
H    -2.321000000    -0.335000000     0.863000000
C    -0.520000000     0.731000000     1.290000000
C    -0.962000000     1.241000000     2.599000000
O    -2.083000000     0.886000000     3.005000000
O    -0.156000000     1.743000000     3.356000000
