17
-77.24120
C     0.362000000     0.965000000     0.907000000
H     0.719000000     1.721000000     1.601000000
C     1.061000000     0.632000000    -0.221000000
H     2.007000000     1.145000000    -0.375000000
C     0.713000000    -0.423000000    -1.019000000
C     1.470000000    -0.615000000    -2.179000000
H     1.158000000    -1.567000000    -2.615000000
H     1.332000000     0.245000000    -2.837000000
H     2.504000000    -0.688000000    -1.836000000
C    -0.537000000    -1.045000000    -0.730000000
H    -0.879000000    -1.879000000    -1.338000000
C    -1.309000000    -0.629000000     0.428000000
H    -2.262000000    -1.060000000     0.722000000
C    -0.884000000     0.416000000     1.191000000
C    -1.696000000     0.922000000     2.359000000
O    -2.452000000     0.082000000     2.789000000
O    -1.306000000     1.776000000     3.156000000
