17
-97.62094
C     0.693000000     1.301000000    -0.218000000
H     1.058000000     2.324000000    -0.177000000
C     0.643000000     0.613000000     1.011000000
H     1.052000000     1.024000000     1.930000000
C    -0.006000000    -0.625000000     1.070000000
C    -0.025000000    -1.445000000     2.324000000
H     0.936000000    -1.807000000     2.696000000
H    -0.437000000    -0.850000000     3.142000000
H    -0.720000000    -2.281000000     2.226000000
C    -0.658000000    -1.116000000    -0.037000000
H    -1.226000000    -2.041000000    -0.088000000
C    -0.682000000    -0.442000000    -1.263000000
H    -1.094000000    -0.913000000    -2.152000000
C     0.060000000     0.816000000    -1.383000000
C     0.142000000     1.579000000    -2.702000000
O    -0.457000000     1.191000000    -3.678000000
O     0.716000000     2.672000000    -2.701000000
