17
-98.68481
C     0.631000000     1.185000000     0.626000000
H     1.363000000     1.849000000     1.080000000
C     0.962000000     0.646000000    -0.641000000
H     1.811000000     1.123000000    -1.123000000
C     0.258000000    -0.442000000    -1.151000000
C     0.616000000    -1.080000000    -2.504000000
H     0.955000000    -2.109000000    -2.366000000
H    -0.254000000    -1.208000000    -3.151000000
H     1.375000000    -0.474000000    -3.003000000
C    -0.761000000    -0.999000000    -0.335000000
H    -1.360000000    -1.841000000    -0.671000000
C    -1.132000000    -0.391000000     0.876000000
H    -1.872000000    -0.906000000     1.483000000
C    -0.385000000     0.645000000     1.420000000
C    -0.653000000     1.172000000     2.798000000
O    -1.757000000     1.006000000     3.242000000
O     0.199000000     1.819000000     3.419000000
