17
-83.85581
C     1.165000000     0.971000000     0.252000000
H     2.025000000     1.610000000     0.432000000
C     0.856000000     0.374000000    -1.000000000
H     1.353000000     0.729000000    -1.899000000
C    -0.246000000    -0.484000000    -1.164000000
C    -0.698000000    -1.037000000    -2.480000000
H    -1.640000000    -0.638000000    -2.865000000
H     0.141000000    -1.160000000    -3.168000000
H    -0.935000000    -2.084000000    -2.281000000
C    -0.961000000    -0.847000000    -0.003000000
H    -1.797000000    -1.541000000     0.032000000
C    -0.651000000    -0.340000000     1.261000000
H    -1.390000000    -0.460000000     2.049000000
C     0.494000000     0.506000000     1.457000000
C     0.799000000     1.230000000     2.779000000
O     0.221000000     0.827000000     3.761000000
O     1.264000000     2.342000000     2.833000000
