17
-95.82522
C     0.467000000     0.414000000     1.349000000
H     0.856000000     0.884000000     2.249000000
C     1.242000000     0.315000000     0.165000000
H     2.231000000     0.764000000     0.212000000
C     0.700000000    -0.232000000    -1.034000000
C     1.526000000    -0.171000000    -2.354000000
H     2.531000000     0.152000000    -2.071000000
H     1.569000000    -1.170000000    -2.793000000
H     1.094000000     0.668000000    -2.904000000
C    -0.607000000    -0.685000000    -1.038000000
H    -1.037000000    -1.113000000    -1.939000000
C    -1.357000000    -0.499000000     0.125000000
H    -2.432000000    -0.655000000     0.175000000
C    -0.896000000     0.061000000     1.306000000
C    -1.718000000     0.283000000     2.520000000
O    -2.977000000     0.335000000     2.458000000
O    -1.185000000     0.649000000     3.569000000
