17
-96.28981
C     0.985000000     0.716000000     0.885000000
H     1.778000000     1.272000000     1.379000000
C     1.312000000     0.115000000    -0.336000000
H     2.334000000    -0.021000000    -0.680000000
C     0.313000000    -0.522000000    -1.101000000
C     0.567000000    -1.297000000    -2.334000000
H     0.364000000    -0.783000000    -3.276000000
H     1.597000000    -1.640000000    -2.453000000
H    -0.113000000    -2.136000000    -2.492000000
C    -0.979000000    -0.529000000    -0.594000000
H    -1.817000000    -0.985000000    -1.115000000
C    -1.343000000     0.079000000     0.591000000
H    -2.368000000     0.113000000     0.952000000
C    -0.357000000     0.702000000     1.367000000
C    -0.711000000     1.420000000     2.729000000
O    -1.820000000     1.680000000     3.062000000
O     0.251000000     1.811000000     3.409000000
