17
-101.82015
C     1.022000000     0.748000000     0.697000000
H     1.833000000     1.370000000     1.068000000
C     1.180000000     0.114000000    -0.538000000
H     2.078000000     0.217000000    -1.141000000
C     0.113000000    -0.643000000    -1.061000000
C     0.452000000    -1.472000000    -2.320000000
H     1.406000000    -1.993000000    -2.219000000
H    -0.358000000    -2.196000000    -2.427000000
H     0.498000000    -0.779000000    -3.162000000
C    -1.136000000    -0.606000000    -0.436000000
H    -1.981000000    -1.119000000    -0.888000000
C    -1.261000000     0.114000000     0.768000000
H    -2.182000000     0.106000000     1.345000000
C    -0.175000000     0.740000000     1.389000000
C    -0.437000000     1.584000000     2.635000000
O    -1.588000000     1.787000000     2.988000000
O     0.535000000     2.020000000     3.310000000
