17
-99.53447
C     1.167000000     0.727000000     0.615000000
H     2.094000000     1.132000000     1.012000000
C     1.090000000     0.265000000    -0.714000000
H     1.961000000     0.360000000    -1.356000000
C    -0.086000000    -0.357000000    -1.200000000
C    -0.139000000    -0.860000000    -2.647000000
H    -1.021000000    -1.482000000    -2.814000000
H    -0.252000000     0.011000000    -3.295000000
H     0.724000000    -1.490000000    -2.874000000
C    -1.155000000    -0.435000000    -0.319000000
H    -2.141000000    -0.733000000    -0.666000000
C    -1.014000000    -0.047000000     1.003000000
H    -1.890000000    -0.236000000     1.619000000
C     0.120000000     0.539000000     1.528000000
C     0.151000000     0.784000000     2.981000000
O    -0.864000000     0.789000000     3.662000000
O     1.249000000     1.025000000     3.470000000
