17
-94.63259
C     1.103000000     0.526000000     0.809000000
H     2.030000000     0.816000000     1.297000000
C     1.038000000     0.528000000    -0.593000000
H     1.850000000     0.893000000    -1.217000000
C    -0.088000000     0.052000000    -1.193000000
C    -0.151000000    -0.005000000    -2.783000000
H     0.367000000     0.837000000    -3.247000000
H     0.358000000    -0.934000000    -3.048000000
H    -1.172000000     0.086000000    -3.159000000
C    -1.166000000    -0.393000000    -0.421000000
H    -2.007000000    -0.846000000    -0.939000000
C    -1.126000000    -0.442000000     0.998000000
H    -1.923000000    -0.897000000     1.581000000
C     0.053000000    -0.013000000     1.556000000
C     0.250000000    -0.051000000     3.018000000
O    -0.561000000    -0.685000000     3.692000000
O     1.153000000     0.534000000     3.649000000
