17
-83.76091
C     0.838000000     1.178000000    -0.265000000
H     1.482000000     2.025000000    -0.489000000
C     1.142000000     0.196000000     0.661000000
H     1.989000000     0.277000000     1.338000000
C     0.235000000    -0.865000000     0.815000000
C     0.596000000    -1.961000000     1.811000000
H     1.612000000    -2.358000000     1.749000000
H     0.481000000    -1.477000000     2.783000000
H    -0.013000000    -2.840000000     1.591000000
C    -0.860000000    -0.930000000     0.022000000
H    -1.456000000    -1.838000000     0.024000000
C    -1.196000000     0.073000000    -0.811000000
H    -2.041000000     0.046000000    -1.495000000
C    -0.311000000     1.114000000    -1.007000000
C    -0.677000000     2.104000000    -2.046000000
O    -1.663000000     2.033000000    -2.694000000
O    -0.154000000     3.220000000    -1.994000000
