17
-100.38782
C     1.411000000    -0.098000000     0.468000000
H     2.432000000    -0.226000000     0.817000000
C     1.009000000    -0.088000000    -0.865000000
H     1.753000000    -0.255000000    -1.639000000
C    -0.300000000    -0.022000000    -1.200000000
C    -0.754000000     0.043000000    -2.595000000
H    -0.516000000    -0.919000000    -3.055000000
H    -1.845000000     0.006000000    -2.623000000
H    -0.423000000     0.844000000    -3.259000000
C    -1.274000000     0.036000000    -0.164000000
H    -2.321000000     0.209000000    -0.398000000
C    -0.905000000     0.080000000     1.153000000
H    -1.699000000     0.195000000     1.887000000
C     0.428000000     0.011000000     1.497000000
C     0.893000000     0.082000000     2.941000000
O     0.011000000    -0.076000000     3.820000000
O     2.104000000     0.173000000     3.222000000
