17
-99.15591
C     0.878000000     1.157000000     0.282000000
H     1.544000000     2.015000000     0.309000000
C     0.655000000     0.544000000    -0.957000000
H     1.174000000     0.941000000    -1.825000000
C    -0.192000000    -0.550000000    -1.032000000
C    -0.446000000    -1.199000000    -2.428000000
H     0.275000000    -0.724000000    -3.097000000
H    -0.250000000    -2.270000000    -2.510000000
H    -1.380000000    -0.892000000    -2.904000000
C    -0.942000000    -0.967000000     0.053000000
H    -1.772000000    -1.652000000    -0.093000000
C    -0.679000000    -0.402000000     1.281000000
H    -1.250000000    -0.747000000     2.139000000
C     0.231000000     0.666000000     1.412000000
C     0.626000000     1.207000000     2.779000000
O     0.175000000     0.692000000     3.777000000
O     1.355000000     2.189000000     2.814000000
