17
-93.94659
C     0.544000000     1.223000000    -0.512000000
H     1.129000000     2.033000000    -0.938000000
C     1.133000000     0.426000000     0.442000000
H     2.107000000     0.646000000     0.872000000
C     0.501000000    -0.683000000     0.897000000
C     1.187000000    -1.528000000     1.851000000
H     0.584000000    -2.414000000     2.061000000
H     2.140000000    -1.762000000     1.373000000
H     1.235000000    -0.913000000     2.752000000
C    -0.801000000    -0.983000000     0.425000000
H    -1.232000000    -1.896000000     0.828000000
C    -1.366000000    -0.209000000    -0.597000000
H    -2.363000000    -0.491000000    -0.924000000
C    -0.727000000     0.929000000    -1.050000000
C    -1.219000000     1.668000000    -2.218000000
O    -2.198000000     1.219000000    -2.756000000
O    -0.658000000     2.728000000    -2.505000000
