17
-88.10924
C    -0.765000000     0.077000000     1.332000000
H    -1.348000000     0.340000000     2.212000000
C    -0.731000000     1.055000000     0.304000000
H    -1.253000000     2.007000000     0.251000000
C     0.112000000     0.856000000    -0.840000000
C     0.038000000     1.891000000    -1.947000000
H     0.256000000     1.512000000    -2.948000000
H    -0.954000000     2.347000000    -1.965000000
H     0.706000000     2.723000000    -1.716000000
C     0.805000000    -0.310000000    -1.010000000
H     1.299000000    -0.487000000    -1.962000000
C     0.675000000    -1.317000000    -0.080000000
H     1.185000000    -2.257000000    -0.276000000
C    -0.013000000    -1.079000000     1.136000000
C    -0.055000000    -2.149000000     2.203000000
O     0.234000000    -3.275000000     1.924000000
O    -0.189000000    -1.929000000     3.383000000
