17
-96.86978
C    -0.628000000    -0.734000000     1.144000000
H    -1.053000000    -1.193000000     2.033000000
C    -1.210000000     0.296000000     0.493000000
H    -2.117000000     0.784000000     0.841000000
C    -0.521000000     1.004000000    -0.499000000
C    -1.073000000     2.219000000    -1.201000000
H    -0.206000000     2.818000000    -1.489000000
H    -1.697000000     1.951000000    -2.056000000
H    -1.695000000     2.867000000    -0.581000000
C     0.751000000     0.491000000    -0.882000000
H     1.263000000     1.071000000    -1.645000000
C     1.311000000    -0.630000000    -0.323000000
H     2.301000000    -0.919000000    -0.667000000
C     0.600000000    -1.287000000     0.674000000
C     1.184000000    -2.531000000     1.282000000
O     2.334000000    -2.875000000     1.015000000
O     0.452000000    -3.324000000     1.862000000
