17
-97.13942
C    -0.953000000    -0.599000000    -0.974000000
H    -1.694000000    -1.036000000    -1.638000000
C    -1.361000000    -0.040000000     0.200000000
H    -2.425000000     0.141000000     0.328000000
C    -0.373000000     0.481000000     1.010000000
C    -0.690000000     1.230000000     2.319000000
H    -0.754000000     2.318000000     2.247000000
H    -1.677000000     0.932000000     2.679000000
H     0.050000000     0.884000000     3.044000000
C     0.983000000     0.437000000     0.704000000
H     1.669000000     1.010000000     1.324000000
C     1.416000000    -0.203000000    -0.446000000
H     2.475000000    -0.222000000    -0.690000000
C     0.430000000    -0.778000000    -1.278000000
C     0.874000000    -1.355000000    -2.601000000
O     1.916000000    -1.959000000    -2.681000000
O     0.107000000    -1.247000000    -3.551000000
