17
-97.64829
C    -0.631000000    -0.297000000    -1.282000000
H    -1.270000000    -0.568000000    -2.118000000
C    -1.246000000     0.202000000    -0.128000000
H    -2.308000000     0.416000000    -0.216000000
C    -0.495000000     0.491000000     1.033000000
C    -1.160000000     1.097000000     2.244000000
H    -2.227000000     1.138000000     2.013000000
H    -0.945000000     0.572000000     3.177000000
H    -0.834000000     2.139000000     2.239000000
C     0.862000000     0.191000000     1.097000000
H     1.450000000     0.520000000     1.950000000
C     1.447000000    -0.311000000    -0.079000000
H     2.492000000    -0.596000000    -0.167000000
C     0.703000000    -0.621000000    -1.255000000
C     1.238000000    -1.286000000    -2.492000000
O     2.375000000    -1.737000000    -2.518000000
O     0.549000000    -1.358000000    -3.500000000
