17
-95.20821
C    -0.752000000     0.593000000    -1.155000000
H    -1.392000000     1.116000000    -1.861000000
C    -0.655000000     1.131000000     0.152000000
H    -1.206000000     2.039000000     0.384000000
C     0.066000000     0.490000000     1.138000000
C    -0.128000000     0.871000000     2.554000000
H    -0.895000000     1.648000000     2.582000000
H    -0.532000000    -0.016000000     3.048000000
H     0.769000000     1.068000000     3.143000000
C     0.828000000    -0.615000000     0.820000000
H     1.369000000    -1.161000000     1.588000000
C     0.853000000    -1.082000000    -0.481000000
H     1.481000000    -1.929000000    -0.743000000
C     0.098000000    -0.481000000    -1.465000000
C     0.040000000    -1.101000000    -2.852000000
O     0.150000000    -2.264000000    -3.061000000
O    -0.086000000    -0.312000000    -3.783000000
