17
-94.49375
C    -1.385000000     0.025000000    -0.608000000
H    -2.387000000     0.158000000    -1.008000000
C    -1.063000000     0.277000000     0.736000000
H    -1.810000000     0.619000000     1.447000000
C     0.235000000     0.320000000     1.157000000
C     0.621000000     0.565000000     2.573000000
H     0.408000000    -0.228000000     3.293000000
H     1.687000000     0.790000000     2.643000000
H    -0.073000000     1.320000000     2.948000000
C     1.263000000     0.148000000     0.238000000
H     2.279000000     0.154000000     0.626000000
C     0.964000000    -0.367000000    -1.031000000
H     1.797000000    -0.637000000    -1.675000000
C    -0.349000000    -0.379000000    -1.477000000
C    -0.658000000    -0.755000000    -2.901000000
O     0.267000000    -1.091000000    -3.653000000
O    -1.795000000    -0.911000000    -3.305000000
