17
-96.01344
C     1.246000000     0.339000000    -0.736000000
H     2.135000000     0.739000000    -1.218000000
C     1.014000000     0.460000000     0.665000000
H     1.733000000     0.953000000     1.314000000
C    -0.207000000     0.130000000     1.211000000
C    -0.514000000     0.280000000     2.775000000
H    -1.480000000     0.769000000     2.916000000
H    -0.487000000    -0.604000000     3.416000000
H     0.272000000     0.958000000     3.111000000
C    -1.168000000    -0.380000000     0.360000000
H    -2.136000000    -0.665000000     0.764000000
C    -0.940000000    -0.588000000    -1.012000000
H    -1.645000000    -1.151000000    -1.618000000
C     0.284000000    -0.239000000    -1.542000000
C     0.532000000    -0.329000000    -3.077000000
O    -0.363000000    -0.341000000    -3.884000000
O     1.731000000    -0.325000000    -3.437000000
