17
-91.59553
C     0.997000000     0.892000000    -0.443000000
H     1.845000000     1.571000000    -0.477000000
C     0.634000000     0.627000000     0.904000000
H     1.149000000     1.129000000     1.719000000
C    -0.315000000    -0.354000000     1.121000000
C    -0.614000000    -0.628000000     2.610000000
H    -1.663000000    -0.513000000     2.893000000
H    -0.201000000    -1.602000000     2.882000000
H    -0.009000000     0.035000000     3.231000000
C    -0.901000000    -1.016000000     0.031000000
H    -1.717000000    -1.718000000     0.182000000
C    -0.564000000    -0.648000000    -1.293000000
H    -1.129000000    -1.080000000    -2.114000000
C     0.374000000     0.316000000    -1.481000000
C     0.648000000     0.834000000    -2.863000000
O    -0.071000000     0.529000000    -3.813000000
O     1.539000000     1.618000000    -3.081000000
