17
-88.04721
C     0.746000000    -0.760000000    -1.050000000
H     1.375000000    -1.299000000    -1.754000000
C     1.346000000    -0.157000000     0.076000000
H     2.414000000    -0.242000000     0.260000000
C     0.521000000     0.542000000     0.971000000
C     1.056000000     1.277000000     2.178000000
H     2.129000000     1.427000000     2.042000000
H     0.606000000     2.256000000     2.351000000
H     1.001000000     0.663000000     3.079000000
C    -0.860000000     0.642000000     0.733000000
H    -1.507000000     1.278000000     1.333000000
C    -1.437000000     0.003000000    -0.428000000
H    -2.463000000     0.205000000    -0.725000000
C    -0.615000000    -0.697000000    -1.270000000
C    -1.182000000    -1.437000000    -2.437000000
O    -2.379000000    -1.203000000    -2.667000000
O    -0.750000000    -2.503000000    -2.700000000
