17
-89.43830
C     0.008000000    -1.434000000    -0.085000000
H     0.028000000    -2.520000000    -0.039000000
C     0.355000000    -0.731000000     1.035000000
H     0.595000000    -1.252000000     1.958000000
C     0.350000000     0.677000000     1.015000000
C     0.770000000     1.529000000     2.209000000
H    -0.036000000     1.861000000     2.866000000
H     1.442000000     0.891000000     2.789000000
H     1.178000000     2.449000000     1.785000000
C    -0.119000000     1.278000000    -0.134000000
H    -0.099000000     2.365000000    -0.122000000
C    -0.375000000     0.536000000    -1.283000000
H    -0.625000000     1.074000000    -2.194000000
C    -0.373000000    -0.864000000    -1.280000000
C    -0.903000000    -1.733000000    -2.513000000
O    -1.396000000    -1.210000000    -3.472000000
O    -0.798000000    -2.923000000    -2.541000000
