17
-88.12624
C     0.237000000    -0.936000000    -1.114000000
H     0.567000000    -1.558000000    -1.942000000
C     1.187000000    -0.577000000    -0.179000000
H     2.216000000    -0.928000000    -0.199000000
C     0.785000000     0.213000000     0.917000000
C     1.713000000     0.680000000     2.134000000
H     1.531000000    -0.005000000     2.965000000
H     2.728000000     0.767000000     1.741000000
H     1.440000000     1.634000000     2.590000000
C    -0.515000000     0.658000000     0.933000000
H    -0.852000000     1.305000000     1.739000000
C    -1.372000000     0.339000000    -0.107000000
H    -2.396000000     0.691000000    -0.021000000
C    -1.007000000    -0.442000000    -1.182000000
C    -1.865000000    -0.603000000    -2.420000000
O    -2.844000000     0.108000000    -2.558000000
O    -1.545000000    -1.347000000    -3.292000000
