17
-96.02564
C     0.161000000    -1.269000000    -0.767000000
H     0.296000000    -2.227000000    -1.263000000
C     1.161000000    -0.587000000    -0.084000000
H     2.179000000    -0.965000000    -0.064000000
C     0.890000000     0.608000000     0.596000000
C     1.975000000     1.411000000     1.348000000
H     2.993000000     1.022000000     1.275000000
H     2.067000000     2.460000000     1.056000000
H     1.704000000     1.504000000     2.401000000
C    -0.424000000     1.002000000     0.662000000
H    -0.758000000     1.891000000     1.190000000
C    -1.417000000     0.324000000    -0.066000000
H    -2.429000000     0.717000000    -0.010000000
C    -1.140000000    -0.807000000    -0.810000000
C    -2.178000000    -1.541000000    -1.562000000
O    -3.054000000    -0.850000000    -2.065000000
O    -2.031000000    -2.693000000    -1.838000000
