17
-97.31474
C     0.510000000    -1.040000000    -0.874000000
H     0.892000000    -1.965000000    -1.300000000
C     1.139000000    -0.550000000     0.277000000
H     2.086000000    -0.955000000     0.625000000
C     0.563000000     0.467000000     1.027000000
C     1.228000000     0.930000000     2.230000000
H     2.221000000     0.480000000     2.284000000
H     1.234000000     2.021000000     2.217000000
H     0.707000000     0.663000000     3.152000000
C    -0.627000000     1.048000000     0.548000000
H    -0.995000000     1.839000000     1.196000000
C    -1.277000000     0.514000000    -0.621000000
H    -2.189000000     1.010000000    -0.942000000
C    -0.688000000    -0.525000000    -1.328000000
C    -1.386000000    -1.143000000    -2.518000000
O    -2.263000000    -0.502000000    -3.064000000
O    -1.155000000    -2.288000000    -2.909000000
