17
-79.27755
C    -0.419000000    -1.017000000     1.031000000
H    -0.654000000    -1.726000000     1.820000000
C     0.536000000    -0.004000000     1.195000000
H     1.144000000    -0.049000000     2.095000000
C     0.843000000     0.876000000     0.160000000
C     1.889000000     1.975000000     0.377000000
H     1.423000000     2.694000000     1.055000000
H     2.810000000     1.644000000     0.861000000
H     2.106000000     2.564000000    -0.517000000
C     0.122000000     0.857000000    -1.005000000
H     0.330000000     1.532000000    -1.832000000
C    -0.870000000    -0.103000000    -1.163000000
H    -1.518000000    -0.140000000    -2.035000000
C    -1.018000000    -1.119000000    -0.216000000
C    -1.960000000    -2.352000000    -0.551000000
O    -2.620000000    -2.366000000    -1.486000000
O    -2.151000000    -3.263000000     0.210000000
