17
-96.88839
C    -0.984000000    -0.848000000     0.729000000
H    -1.595000000    -1.447000000     1.399000000
C    -0.320000000     0.273000000     1.242000000
H    -0.438000000     0.543000000     2.288000000
C     0.484000000     1.068000000     0.419000000
C     1.107000000     2.339000000     0.952000000
H     0.477000000     3.045000000     1.496000000
H     1.963000000     2.031000000     1.556000000
H     1.484000000     2.875000000     0.078000000
C     0.748000000     0.672000000    -0.853000000
H     1.419000000     1.205000000    -1.522000000
C     0.161000000    -0.499000000    -1.393000000
H     0.405000000    -0.859000000    -2.390000000
C    -0.757000000    -1.304000000    -0.573000000
C    -1.301000000    -2.641000000    -1.057000000
O    -1.250000000    -3.022000000    -2.213000000
O    -1.599000000    -3.423000000    -0.160000000
