17
-99.47350
C    -0.209000000    -1.178000000     0.937000000
H    -0.349000000    -1.966000000     1.673000000
C     0.566000000    -0.017000000     1.206000000
H     1.070000000     0.249000000     2.132000000
C     0.694000000     0.990000000     0.258000000
C     1.560000000     2.178000000     0.429000000
H     1.878000000     2.589000000    -0.532000000
H     1.065000000     2.934000000     1.041000000
H     2.434000000     1.834000000     0.986000000
C    -0.059000000     0.918000000    -0.915000000
H     0.072000000     1.692000000    -1.668000000
C    -0.779000000    -0.194000000    -1.230000000
H    -1.304000000    -0.319000000    -2.174000000
C    -0.854000000    -1.262000000    -0.280000000
C    -1.702000000    -2.535000000    -0.564000000
O    -2.434000000    -2.467000000    -1.522000000
O    -1.651000000    -3.447000000     0.218000000
