17
-91.89196
C    -0.121000000    -1.150000000     0.932000000
H    -0.113000000    -1.925000000     1.695000000
C     0.702000000    -0.070000000     1.131000000
H     1.292000000     0.072000000     2.033000000
C     0.687000000     0.963000000     0.247000000
C     1.237000000     2.315000000     0.630000000
H     1.249000000     2.990000000    -0.228000000
H     0.571000000     2.752000000     1.378000000
H     2.242000000     2.226000000     1.047000000
C     0.044000000     0.850000000    -1.024000000
H     0.185000000     1.682000000    -1.710000000
C    -0.680000000    -0.318000000    -1.322000000
H    -1.135000000    -0.391000000    -2.307000000
C    -0.740000000    -1.324000000    -0.348000000
C    -1.605000000    -2.522000000    -0.611000000
O    -2.134000000    -2.749000000    -1.731000000
O    -1.674000000    -3.402000000     0.186000000
