17
-89.09093
C    -1.451000000     0.015000000     0.254000000
H    -2.516000000     0.136000000     0.438000000
C    -0.515000000     0.791000000     0.981000000
H    -0.828000000     1.567000000     1.674000000
C     0.798000000     0.669000000     0.594000000
C     1.772000000     1.558000000     1.248000000
H     1.417000000     1.855000000     2.238000000
H     2.732000000     1.045000000     1.171000000
H     1.818000000     2.535000000     0.761000000
C     1.232000000    -0.164000000    -0.439000000
H     2.261000000    -0.186000000    -0.787000000
C     0.336000000    -1.047000000    -1.005000000
H     0.538000000    -1.708000000    -1.844000000
C    -0.973000000    -0.935000000    -0.644000000
C    -1.946000000    -1.799000000    -1.315000000
O    -1.544000000    -2.685000000    -2.078000000
O    -3.125000000    -1.646000000    -1.243000000
