17
-86.40047
C    -1.420000000    -0.143000000     0.157000000
H    -2.467000000    -0.355000000     0.359000000
C    -0.595000000     0.558000000     0.999000000
H    -0.966000000     0.993000000     1.923000000
C     0.735000000     0.680000000     0.740000000
C     1.638000000     1.539000000     1.466000000
H     0.976000000     2.279000000     1.920000000
H     2.056000000     0.924000000     2.266000000
H     2.382000000     1.999000000     0.813000000
C     1.243000000     0.090000000    -0.354000000
H     2.299000000     0.287000000    -0.522000000
C     0.425000000    -0.668000000    -1.214000000
H     0.811000000    -1.030000000    -2.164000000
C    -0.914000000    -0.847000000    -0.899000000
C    -1.821000000    -1.809000000    -1.626000000
O    -1.518000000    -2.190000000    -2.736000000
O    -2.862000000    -2.304000000    -1.123000000
