17
-96.59490
C    -0.933000000     0.877000000     0.897000000
H    -1.642000000     1.448000000     1.491000000
C     0.089000000    -0.016000000     1.313000000
H     0.223000000    -0.135000000     2.385000000
C     0.882000000    -0.735000000     0.471000000
C     1.899000000    -1.726000000     0.992000000
H     2.758000000    -1.128000000     1.301000000
H     1.569000000    -2.254000000     1.890000000
H     2.215000000    -2.505000000     0.295000000
C     0.713000000    -0.590000000    -0.915000000
H     1.360000000    -1.119000000    -1.610000000
C    -0.233000000     0.318000000    -1.380000000
H    -0.548000000     0.274000000    -2.419000000
C    -1.156000000     0.939000000    -0.527000000
C    -2.179000000     1.834000000    -1.213000000
O    -2.266000000     1.856000000    -2.447000000
O    -2.759000000     2.656000000    -0.516000000
