17
-97.94146
C    -0.944000000     0.035000000     1.180000000
H    -1.521000000    -0.189000000     2.074000000
C     0.450000000    -0.221000000     1.195000000
H     0.847000000    -0.424000000     2.187000000
C     1.279000000    -0.052000000     0.084000000
C     2.715000000    -0.528000000     0.115000000
H     2.983000000    -0.681000000    -0.932000000
H     3.471000000     0.158000000     0.503000000
H     2.795000000    -1.486000000     0.634000000
C     0.666000000     0.357000000    -1.096000000
H     1.212000000     0.345000000    -2.035000000
C    -0.748000000     0.514000000    -1.165000000
H    -1.171000000     0.716000000    -2.145000000
C    -1.545000000     0.344000000    -0.006000000
C    -3.099000000     0.393000000    -0.152000000
O    -3.605000000     0.836000000    -1.166000000
O    -3.779000000    -0.113000000     0.720000000
