17
-97.52970
C    -1.280000000     0.336000000     0.749000000
H    -2.152000000     0.521000000     1.371000000
C     0.007000000     0.615000000     1.191000000
H     0.187000000     1.098000000     2.148000000
C     1.099000000     0.122000000     0.500000000
C     2.530000000     0.258000000     0.951000000
H     3.122000000    -0.646000000     0.796000000
H     3.092000000     1.047000000     0.446000000
H     2.545000000     0.451000000     2.025000000
C     0.923000000    -0.334000000    -0.764000000
H     1.811000000    -0.574000000    -1.344000000
C    -0.360000000    -0.534000000    -1.274000000
H    -0.413000000    -1.014000000    -2.248000000
C    -1.455000000    -0.237000000    -0.534000000
C    -2.857000000    -0.416000000    -1.128000000
O    -3.053000000    -1.047000000    -2.215000000
O    -3.743000000     0.347000000    -0.671000000
