17
-95.64708
C    -0.397000000    -0.330000000     1.455000000
H    -0.564000000    -0.554000000     2.505000000
C     0.806000000    -0.722000000     0.763000000
H     1.597000000    -1.245000000     1.294000000
C     1.129000000    -0.304000000    -0.558000000
C     2.253000000    -0.888000000    -1.365000000
H     1.897000000    -1.329000000    -2.298000000
H     2.987000000    -0.093000000    -1.511000000
H     2.766000000    -1.693000000    -0.836000000
C     0.205000000     0.539000000    -1.154000000
H     0.358000000     0.877000000    -2.176000000
C    -1.025000000     0.845000000    -0.558000000
H    -1.667000000     1.592000000    -1.017000000
C    -1.345000000     0.384000000     0.772000000
C    -2.672000000     0.836000000     1.393000000
O    -3.300000000     1.694000000     0.832000000
O    -3.020000000     0.388000000     2.459000000
