17
-88.24960
C    -0.711000000    -0.395000000     1.213000000
H    -1.062000000    -0.862000000     2.129000000
C     0.583000000    -0.757000000     0.891000000
H     1.117000000    -1.371000000     1.612000000
C     1.113000000    -0.413000000    -0.354000000
C     2.596000000    -0.626000000    -0.694000000
H     3.117000000    -0.045000000     0.070000000
H     2.926000000    -1.664000000    -0.622000000
H     2.798000000    -0.242000000    -1.696000000
C     0.336000000     0.403000000    -1.185000000
H     0.731000000     0.616000000    -2.175000000
C    -0.947000000     0.809000000    -0.843000000
H    -1.507000000     1.430000000    -1.537000000
C    -1.465000000     0.421000000     0.366000000
C    -2.812000000     0.776000000     0.819000000
O    -3.499000000     1.478000000     0.139000000
O    -3.314000000     0.438000000     1.869000000
