17
-96.54403
C    -1.038000000     0.434000000     0.951000000
H    -1.717000000     0.673000000     1.766000000
C     0.279000000     0.187000000     1.278000000
H     0.648000000     0.188000000     2.300000000
C     1.200000000    -0.125000000     0.207000000
C     2.693000000    -0.233000000     0.579000000
H     3.340000000    -0.401000000    -0.285000000
H     3.115000000     0.700000000     0.956000000
H     2.767000000    -0.997000000     1.356000000
C     0.712000000    -0.299000000    -1.022000000
H     1.407000000    -0.609000000    -1.799000000
C    -0.684000000    -0.235000000    -1.322000000
H    -1.055000000    -0.347000000    -2.338000000
C    -1.524000000     0.204000000    -0.324000000
C    -2.984000000     0.286000000    -0.662000000
O    -3.300000000     0.299000000    -1.839000000
O    -3.851000000     0.267000000     0.205000000
