17
-101.32708
C    -1.271000000    -0.574000000    -0.415000000
H    -2.155000000    -1.164000000    -0.643000000
C    -0.054000000    -0.907000000    -0.959000000
H    -0.006000000    -1.695000000    -1.706000000
C     1.103000000    -0.236000000    -0.526000000
C     2.458000000    -0.740000000    -0.950000000
H     2.490000000    -0.911000000    -2.028000000
H     3.190000000     0.055000000    -0.796000000
H     2.690000000    -1.639000000    -0.374000000
C     1.018000000     0.830000000     0.381000000
H     1.939000000     1.368000000     0.592000000
C    -0.250000000     1.094000000     0.978000000
H    -0.409000000     1.947000000     1.633000000
C    -1.406000000     0.375000000     0.596000000
C    -2.750000000     0.647000000     1.252000000
O    -2.899000000     1.574000000     2.063000000
O    -3.696000000    -0.024000000     0.901000000
