17
-87.64998
C    -1.151000000    -0.469000000     0.829000000
H    -1.964000000    -0.862000000     1.434000000
C     0.005000000    -1.169000000     0.538000000
H     0.067000000    -2.202000000     0.869000000
C     0.974000000    -0.646000000    -0.318000000
C     2.328000000    -1.467000000    -0.513000000
H     3.174000000    -0.848000000    -0.207000000
H     2.465000000    -2.341000000     0.128000000
H     2.368000000    -1.842000000    -1.538000000
C     0.766000000     0.647000000    -0.896000000
H     1.455000000     1.072000000    -1.622000000
C    -0.275000000     1.363000000    -0.478000000
H    -0.358000000     2.352000000    -0.920000000
C    -1.286000000     0.846000000     0.360000000
C    -2.549000000     1.636000000     0.641000000
O    -2.607000000     2.808000000     0.411000000
O    -3.416000000     1.119000000     1.285000000
