17
-94.92770
C     0.016000000    -0.801000000    -1.249000000
H     0.132000000    -1.378000000    -2.163000000
C     1.058000000     0.016000000    -0.755000000
H     1.979000000     0.099000000    -1.326000000
C     0.905000000     0.721000000     0.446000000
C     2.062000000     1.453000000     1.055000000
H     1.919000000     2.533000000     0.988000000
H     2.227000000     1.225000000     2.110000000
H     3.012000000     1.226000000     0.568000000
C    -0.314000000     0.702000000     1.023000000
H    -0.506000000     1.337000000     1.884000000
C    -1.304000000    -0.189000000     0.590000000
H    -2.287000000    -0.140000000     1.052000000
C    -1.159000000    -0.961000000    -0.555000000
C    -2.286000000    -1.761000000    -1.047000000
O    -3.277000000    -1.913000000    -0.421000000
O    -2.174000000    -2.163000000    -2.207000000
