17
-89.75288
C     0.644000000    -0.354000000    -1.290000000
H     1.174000000    -0.580000000    -2.212000000
C     1.227000000    -0.118000000    -0.037000000
H     2.284000000    -0.263000000     0.171000000
C     0.559000000     0.290000000     1.043000000
C     1.282000000     0.321000000     2.367000000
H     1.963000000    -0.501000000     2.600000000
H     1.959000000     1.177000000     2.401000000
H     0.561000000     0.352000000     3.186000000
C    -0.816000000     0.485000000     0.966000000
H    -1.318000000     0.541000000     1.929000000
C    -1.471000000     0.218000000    -0.267000000
H    -2.551000000     0.340000000    -0.300000000
C    -0.781000000    -0.188000000    -1.385000000
C    -1.385000000    -0.496000000    -2.715000000
O    -2.511000000    -1.009000000    -2.728000000
O    -0.828000000    -0.218000000    -3.723000000
