17
-90.67466
C     0.595000000    -0.871000000    -1.028000000
H     0.946000000    -1.305000000    -1.961000000
C     1.171000000     0.329000000    -0.522000000
H     1.849000000     0.902000000    -1.150000000
C     0.620000000     0.915000000     0.607000000
C     1.063000000     2.350000000     0.834000000
H     0.245000000     2.890000000     1.314000000
H     1.968000000     2.361000000     1.446000000
H     1.204000000     2.814000000    -0.144000000
C    -0.478000000     0.347000000     1.189000000
H    -0.967000000     0.800000000     2.048000000
C    -1.042000000    -0.775000000     0.725000000
H    -1.989000000    -1.160000000     1.093000000
C    -0.544000000    -1.416000000    -0.395000000
C    -1.305000000    -2.519000000    -1.093000000
O    -2.503000000    -2.534000000    -0.901000000
O    -0.833000000    -3.123000000    -2.065000000
