17
-94.75725
C    -0.066000000    -1.287000000    -0.705000000
H     0.163000000    -2.235000000    -1.186000000
C     1.064000000    -0.533000000    -0.435000000
H     2.009000000    -0.971000000    -0.747000000
C     0.953000000     0.720000000     0.234000000
C     2.314000000     1.479000000     0.489000000
H     2.824000000     1.091000000     1.372000000
H     2.872000000     1.517000000    -0.449000000
H     2.191000000     2.512000000     0.823000000
C    -0.301000000     1.181000000     0.661000000
H    -0.422000000     2.072000000     1.272000000
C    -1.444000000     0.410000000     0.361000000
H    -2.438000000     0.737000000     0.656000000
C    -1.311000000    -0.865000000    -0.277000000
C    -2.479000000    -1.696000000    -0.627000000
O    -3.602000000    -1.373000000    -0.251000000
O    -2.319000000    -2.763000000    -1.189000000
