17
-88.67314
C     0.245000000    -1.031000000    -1.027000000
H     0.670000000    -1.795000000    -1.674000000
C     1.104000000     0.071000000    -0.695000000
H     2.077000000     0.134000000    -1.175000000
C     0.769000000     0.891000000     0.271000000
C     1.646000000     2.016000000     0.750000000
H     1.793000000     2.045000000     1.832000000
H     2.632000000     1.893000000     0.298000000
H     1.190000000     2.983000000     0.527000000
C    -0.313000000     0.668000000     1.016000000
H    -0.617000000     1.318000000     1.833000000
C    -1.334000000    -0.195000000     0.508000000
H    -2.282000000    -0.241000000     1.039000000
C    -0.998000000    -1.162000000    -0.431000000
C    -1.959000000    -2.277000000    -0.899000000
O    -2.989000000    -2.457000000    -0.261000000
O    -1.636000000    -2.856000000    -1.909000000
