17
-99.74669
C    -0.157000000    -0.239000000    -1.454000000
H    -0.191000000    -0.474000000    -2.515000000
C     1.017000000    -0.362000000    -0.698000000
H     1.950000000    -0.580000000    -1.212000000
C     1.037000000    -0.148000000     0.645000000
C     2.345000000    -0.180000000     1.425000000
H     2.339000000    -0.145000000     2.517000000
H     2.854000000    -1.081000000     1.077000000
H     3.050000000     0.580000000     1.080000000
C    -0.193000000     0.032000000     1.295000000
H    -0.177000000     0.068000000     2.382000000
C    -1.357000000     0.203000000     0.561000000
H    -2.342000000     0.373000000     0.987000000
C    -1.341000000     0.084000000    -0.827000000
C    -2.600000000     0.508000000    -1.569000000
O    -3.436000000     1.214000000    -0.981000000
O    -2.796000000     0.149000000    -2.721000000
