17
-92.64265
C     0.162000000     0.386000000    -1.478000000
H     0.420000000     0.718000000    -2.480000000
C     1.111000000    -0.145000000    -0.622000000
H     2.159000000    -0.147000000    -0.910000000
C     0.861000000    -0.509000000     0.677000000
C     1.962000000    -0.833000000     1.663000000
H     2.436000000     0.124000000     1.891000000
H     1.704000000    -1.382000000     2.571000000
H     2.818000000    -1.263000000     1.139000000
C    -0.432000000    -0.399000000     1.196000000
H    -0.644000000    -0.615000000     2.240000000
C    -1.365000000     0.178000000     0.353000000
H    -2.351000000     0.345000000     0.778000000
C    -1.126000000     0.532000000    -0.942000000
C    -2.244000000     0.926000000    -1.803000000
O    -3.313000000     1.124000000    -1.257000000
O    -2.153000000     0.954000000    -3.014000000
