17
-100.26649
C    -0.094000000    -0.704000000    -1.336000000
H    -0.107000000    -1.146000000    -2.329000000
C     1.082000000    -0.261000000    -0.753000000
H     2.007000000    -0.301000000    -1.322000000
C     1.071000000     0.458000000     0.471000000
C     2.335000000     0.951000000     1.095000000
H     2.271000000     2.016000000     1.330000000
H     2.421000000     0.224000000     1.905000000
H     3.229000000     0.814000000     0.482000000
C    -0.160000000     0.637000000     1.170000000
H    -0.216000000     1.126000000     2.139000000
C    -1.346000000     0.094000000     0.650000000
H    -2.281000000     0.256000000     1.181000000
C    -1.299000000    -0.526000000    -0.625000000
C    -2.613000000    -1.062000000    -1.214000000
O    -3.675000000    -0.860000000    -0.599000000
O    -2.617000000    -1.717000000    -2.238000000
