17
-93.52666
C    -0.099000000    -0.983000000    -1.139000000
H    -0.019000000    -1.559000000    -2.058000000
C     1.040000000    -0.196000000    -0.830000000
H     1.924000000    -0.275000000    -1.457000000
C     1.024000000     0.628000000     0.318000000
C     2.332000000     1.299000000     0.775000000
H     2.115000000     2.151000000     1.424000000
H     2.883000000     0.492000000     1.261000000
H     2.751000000     1.750000000    -0.127000000
C    -0.144000000     0.744000000     1.100000000
H    -0.115000000     1.453000000     1.923000000
C    -1.309000000     0.129000000     0.679000000
H    -2.236000000     0.309000000     1.217000000
C    -1.354000000    -0.809000000    -0.412000000
C    -2.593000000    -1.564000000    -0.800000000
O    -3.534000000    -1.491000000    -0.007000000
O    -2.668000000    -2.083000000    -1.859000000
