17
-94.61122
C     0.311000000    -0.373000000    -1.424000000
H     0.610000000    -0.751000000    -2.398000000
C     0.540000000    -1.174000000    -0.285000000
H     1.059000000    -2.126000000    -0.355000000
C     0.093000000    -0.786000000     0.938000000
C     0.238000000    -1.658000000     2.139000000
H    -0.481000000    -2.480000000     2.168000000
H     1.235000000    -2.100000000     2.195000000
H     0.110000000    -1.003000000     3.003000000
C    -0.567000000     0.443000000     1.092000000
H    -0.965000000     0.781000000     2.046000000
C    -0.523000000     1.309000000     0.025000000
H    -0.908000000     2.323000000     0.096000000
C    -0.170000000     0.935000000    -1.226000000
C    -0.252000000     1.908000000    -2.391000000
O    -0.581000000     3.083000000    -2.168000000
O     0.258000000     1.667000000    -3.462000000
