17
-90.36896
C     0.147000000     0.545000000    -1.345000000
H     0.329000000     0.922000000    -2.348000000
C     1.052000000    -0.239000000    -0.705000000
H     1.967000000    -0.548000000    -1.205000000
C     0.876000000    -0.651000000     0.599000000
C     1.818000000    -1.440000000     1.396000000
H     2.653000000    -1.660000000     0.728000000
H     2.293000000    -0.888000000     2.211000000
H     1.441000000    -2.411000000     1.723000000
C    -0.311000000    -0.324000000     1.261000000
H    -0.495000000    -0.802000000     2.219000000
C    -1.258000000     0.434000000     0.627000000
H    -2.166000000     0.794000000     1.105000000
C    -1.114000000     0.892000000    -0.766000000
C    -2.119000000     1.571000000    -1.600000000
O    -3.135000000     2.055000000    -1.098000000
O    -1.975000000     1.755000000    -2.803000000
