17
-93.04431
C    -0.507000000    -0.175000000    -1.443000000
H    -0.875000000    -0.401000000    -2.440000000
C     0.640000000    -0.762000000    -0.913000000
H     1.301000000    -1.387000000    -1.508000000
C     1.025000000    -0.497000000     0.385000000
C     2.286000000    -1.066000000     0.947000000
H     3.129000000    -0.584000000     0.447000000
H     2.317000000    -0.710000000     1.979000000
H     2.291000000    -2.157000000     0.894000000
C     0.328000000     0.288000000     1.239000000
H     0.547000000     0.394000000     2.298000000
C    -0.841000000     0.795000000     0.752000000
H    -1.463000000     1.354000000     1.446000000
C    -1.303000000     0.597000000    -0.565000000
C    -2.630000000     1.221000000    -1.018000000
O    -3.312000000     1.919000000    -0.297000000
O    -2.925000000     1.165000000    -2.200000000
