17
-87.98951
C     0.119000000     0.619000000    -1.400000000
H     0.298000000     1.099000000    -2.358000000
C     1.163000000     0.050000000    -0.631000000
H     2.154000000    -0.077000000    -1.058000000
C     0.913000000    -0.475000000     0.685000000
C     2.034000000    -1.168000000     1.508000000
H     1.813000000    -1.263000000     2.573000000
H     2.402000000    -2.084000000     1.041000000
H     2.884000000    -0.504000000     1.337000000
C    -0.362000000    -0.429000000     1.204000000
H    -0.520000000    -0.909000000     2.166000000
C    -1.423000000     0.029000000     0.391000000
H    -2.413000000    -0.038000000     0.836000000
C    -1.177000000     0.640000000    -0.844000000
C    -2.298000000     1.324000000    -1.579000000
O    -3.324000000     1.535000000    -1.051000000
O    -2.266000000     1.657000000    -2.823000000
