17
-96.34610
C    -0.954000000    -0.979000000    -0.617000000
H    -1.593000000    -1.784000000    -0.971000000
C     0.302000000    -1.299000000    -0.031000000
H     0.543000000    -2.357000000     0.036000000
C     1.114000000    -0.303000000     0.453000000
C     2.490000000    -0.582000000     0.984000000
H     3.212000000     0.075000000     0.494000000
H     2.560000000    -0.449000000     2.066000000
H     2.827000000    -1.610000000     0.834000000
C     0.641000000     1.013000000     0.507000000
H     1.378000000     1.755000000     0.801000000
C    -0.658000000     1.349000000     0.035000000
H    -0.892000000     2.406000000     0.128000000
C    -1.523000000     0.334000000    -0.520000000
C    -2.862000000     0.681000000    -1.145000000
O    -3.266000000     1.842000000    -1.058000000
O    -3.321000000    -0.084000000    -1.991000000
