17
-86.06901
C    -0.788000000    -0.557000000    -1.094000000
H    -1.196000000    -1.135000000    -1.919000000
C     0.266000000    -1.226000000    -0.412000000
H     0.582000000    -2.205000000    -0.764000000
C     0.908000000    -0.575000000     0.632000000
C     1.998000000    -1.275000000     1.372000000
H     2.753000000    -0.572000000     1.729000000
H     1.619000000    -1.951000000     2.141000000
H     2.579000000    -1.905000000     0.695000000
C     0.476000000     0.686000000     0.983000000
H     0.861000000     1.263000000     1.819000000
C    -0.544000000     1.345000000     0.303000000
H    -0.726000000     2.364000000     0.635000000
C    -1.211000000     0.779000000    -0.775000000
C    -2.288000000     1.476000000    -1.534000000
O    -2.413000000     2.641000000    -1.476000000
O    -2.870000000     0.845000000    -2.338000000
