17
-97.37568
C     0.727000000     0.220000000    -1.263000000
H     1.281000000     0.143000000    -2.195000000
C     1.120000000    -0.622000000    -0.254000000
H     2.083000000    -1.125000000    -0.293000000
C     0.384000000    -0.748000000     0.902000000
C     0.708000000    -1.842000000     1.957000000
H    -0.183000000    -2.410000000     2.230000000
H     1.450000000    -2.527000000     1.540000000
H     1.081000000    -1.390000000     2.879000000
C    -0.782000000     0.029000000     1.040000000
H    -1.412000000     0.001000000     1.925000000
C    -1.078000000     0.970000000     0.079000000
H    -1.988000000     1.539000000     0.253000000
C    -0.407000000     1.068000000    -1.120000000
C    -0.871000000     1.993000000    -2.250000000
O    -1.785000000     2.803000000    -2.106000000
O    -0.326000000     1.890000000    -3.318000000
