17
-99.63086
C    -0.472000000    -0.514000000    -1.273000000
H    -0.819000000    -0.984000000    -2.190000000
C     0.829000000    -0.696000000    -0.751000000
H     1.446000000    -1.332000000    -1.379000000
C     1.184000000    -0.049000000     0.399000000
C     2.537000000    -0.266000000     0.980000000
H     3.324000000    -0.212000000     0.224000000
H     2.774000000     0.498000000     1.722000000
H     2.536000000    -1.279000000     1.388000000
C     0.212000000     0.594000000     1.146000000
H     0.496000000     1.145000000     2.039000000
C    -1.069000000     0.738000000     0.648000000
H    -1.878000000     1.208000000     1.201000000
C    -1.443000000     0.252000000    -0.588000000
C    -2.855000000     0.276000000    -1.039000000
O    -3.730000000     0.792000000    -0.352000000
O    -3.074000000    -0.163000000    -2.173000000
