17
-97.64800
C     0.915000000     0.291000000    -1.114000000
H     1.607000000     0.409000000    -1.944000000
C     1.001000000    -0.804000000    -0.310000000
H     1.901000000    -1.415000000    -0.317000000
C     0.088000000    -0.932000000     0.721000000
C     0.372000000    -2.102000000     1.667000000
H    -0.378000000    -2.097000000     2.460000000
H     0.223000000    -3.025000000     1.103000000
H     1.412000000    -1.998000000     1.985000000
C    -1.037000000    -0.109000000     0.873000000
H    -1.790000000    -0.341000000     1.621000000
C    -1.172000000     0.932000000    -0.034000000
H    -1.912000000     1.703000000     0.166000000
C    -0.174000000     1.208000000    -0.958000000
C    -0.309000000     2.431000000    -1.769000000
O    -1.111000000     3.290000000    -1.372000000
O     0.363000000     2.566000000    -2.775000000
