17
-97.84233
C    -0.738000000     0.051000000    -1.305000000
H    -1.178000000     0.124000000    -2.296000000
C     0.642000000     0.329000000    -1.101000000
H     1.172000000     0.770000000    -1.941000000
C     1.254000000     0.188000000     0.160000000
C     2.689000000     0.515000000     0.337000000
H     3.276000000    -0.378000000     0.562000000
H     3.026000000     1.063000000    -0.546000000
H     2.901000000     1.217000000     1.146000000
C     0.441000000    -0.186000000     1.233000000
H     0.808000000    -0.206000000     2.256000000
C    -0.955000000    -0.417000000     1.023000000
H    -1.499000000    -0.699000000     1.921000000
C    -1.532000000    -0.300000000    -0.227000000
C    -3.025000000    -0.649000000    -0.385000000
O    -3.760000000    -0.589000000     0.616000000
O    -3.528000000    -0.835000000    -1.448000000
