17
-96.97998
C    -0.903000000     1.141000000     0.232000000
H    -1.595000000     1.912000000     0.561000000
C     0.091000000     0.672000000     1.084000000
H     0.173000000     1.166000000     2.049000000
C     0.970000000    -0.355000000     0.715000000
C     1.954000000    -0.875000000     1.770000000
H     2.373000000    -1.801000000     1.372000000
H     2.580000000    -0.030000000     2.065000000
H     1.412000000    -1.192000000     2.663000000
C     0.802000000    -0.979000000    -0.517000000
H     1.356000000    -1.852000000    -0.853000000
C    -0.216000000    -0.537000000    -1.350000000
H    -0.438000000    -1.122000000    -2.239000000
C    -1.102000000     0.491000000    -0.995000000
C    -2.217000000     0.962000000    -1.938000000
O    -2.438000000     0.468000000    -3.040000000
O    -2.800000000     1.939000000    -1.581000000
