17
-94.06092
C     0.296000000    -0.031000000    -1.430000000
H     0.720000000    -0.019000000    -2.430000000
C     0.684000000    -0.958000000    -0.471000000
H     1.174000000    -1.852000000    -0.849000000
C     0.173000000    -0.928000000     0.825000000
C     0.743000000    -1.835000000     1.843000000
H     0.699000000    -1.480000000     2.875000000
H     0.311000000    -2.823000000     1.669000000
H     1.806000000    -2.033000000     1.692000000
C    -0.612000000     0.107000000     1.193000000
H    -0.967000000     0.223000000     2.214000000
C    -0.978000000     1.055000000     0.207000000
H    -1.513000000     1.935000000     0.554000000
C    -0.415000000     1.072000000    -1.045000000
C    -0.623000000     2.216000000    -1.997000000
O    -1.464000000     3.109000000    -1.767000000
O    -0.031000000     2.236000000    -3.082000000
