17
-92.43728
C    -0.724000000     1.145000000     0.452000000
H    -1.155000000     2.030000000     0.912000000
C     0.600000000     1.055000000     0.341000000
H     1.229000000     1.860000000     0.711000000
C     1.224000000    -0.091000000    -0.115000000
C     2.730000000    -0.109000000    -0.152000000
H     3.165000000     0.893000000    -0.148000000
H     3.192000000    -0.512000000     0.752000000
H     3.126000000    -0.718000000    -0.968000000
C     0.373000000    -1.165000000    -0.500000000
H     0.866000000    -2.082000000    -0.813000000
C    -1.016000000    -1.158000000    -0.409000000
H    -1.608000000    -1.990000000    -0.781000000
C    -1.543000000     0.017000000     0.138000000
C    -3.073000000     0.224000000     0.202000000
O    -3.829000000    -0.657000000    -0.208000000
O    -3.552000000     1.251000000     0.581000000
