17
-90.20733
C    -0.966000000     0.950000000     0.594000000
H    -1.585000000     1.727000000     1.035000000
C     0.415000000     1.016000000     0.749000000
H     0.867000000     1.852000000     1.276000000
C     1.200000000     0.166000000     0.075000000
C     2.627000000     0.293000000     0.215000000
H     3.092000000    -0.355000000     0.961000000
H     3.035000000    -0.072000000    -0.730000000
H     3.047000000     1.301000000     0.225000000
C     0.624000000    -0.837000000    -0.748000000
H     1.345000000    -1.536000000    -1.165000000
C    -0.723000000    -1.085000000    -0.761000000
H    -1.123000000    -2.005000000    -1.180000000
C    -1.552000000    -0.120000000    -0.133000000
C    -3.045000000    -0.374000000    -0.169000000
O    -3.530000000    -1.402000000    -0.576000000
O    -3.723000000     0.488000000     0.340000000
