17
-90.17408
C     0.131000000     0.816000000     1.177000000
H     0.262000000     1.511000000     2.002000000
C     1.083000000     0.620000000     0.241000000
H     2.009000000     1.183000000     0.316000000
C     0.811000000    -0.152000000    -0.881000000
C     1.970000000    -0.271000000    -1.837000000
H     1.837000000     0.503000000    -2.596000000
H     2.945000000     0.014000000    -1.436000000
H     2.025000000    -1.229000000    -2.359000000
C    -0.300000000    -0.960000000    -0.927000000
H    -0.484000000    -1.580000000    -1.801000000
C    -1.251000000    -0.738000000     0.067000000
H    -2.247000000    -1.170000000     0.023000000
C    -1.049000000     0.097000000     1.168000000
C    -2.219000000     0.328000000     2.059000000
O    -3.326000000    -0.152000000     1.836000000
O    -2.200000000     1.178000000     2.949000000
