17
-97.30350
C    -0.613000000     0.911000000     0.891000000
H    -0.984000000     1.768000000     1.446000000
C     0.627000000     1.100000000     0.280000000
H     1.086000000     2.082000000     0.350000000
C     1.125000000     0.057000000    -0.498000000
C     2.383000000     0.387000000    -1.266000000
H     3.244000000    -0.245000000    -1.041000000
H     2.089000000     0.209000000    -2.302000000
H     2.645000000     1.445000000    -1.198000000
C     0.351000000    -1.087000000    -0.694000000
H     0.816000000    -1.859000000    -1.302000000
C    -0.891000000    -1.257000000    -0.060000000
H    -1.497000000    -2.155000000    -0.149000000
C    -1.342000000    -0.223000000     0.778000000
C    -2.670000000    -0.332000000     1.389000000
O    -3.361000000    -1.326000000     1.179000000
O    -3.006000000     0.520000000     2.194000000
