17
-88.98045
C    -0.924000000     0.806000000     1.016000000
H    -1.505000000     1.485000000     1.633000000
C     0.426000000     1.041000000     0.752000000
H     0.866000000     1.912000000     1.232000000
C     1.176000000     0.271000000    -0.141000000
C     2.606000000     0.567000000    -0.558000000
H     3.133000000     1.313000000     0.041000000
H     3.171000000    -0.368000000    -0.559000000
H     2.616000000     0.776000000    -1.630000000
C     0.585000000    -0.849000000    -0.687000000
H     1.218000000    -1.460000000    -1.324000000
C    -0.704000000    -1.176000000    -0.432000000
H    -1.038000000    -2.087000000    -0.922000000
C    -1.497000000    -0.365000000     0.397000000
C    -2.962000000    -0.561000000     0.393000000
O    -3.513000000    -1.440000000    -0.258000000
O    -3.659000000     0.142000000     1.047000000
