17
-91.68364
C     0.672000000    -0.624000000     1.141000000
H     1.059000000    -1.337000000     1.865000000
C     0.898000000    -0.946000000    -0.242000000
H     1.758000000    -1.573000000    -0.467000000
C     0.215000000    -0.315000000    -1.162000000
C     0.422000000    -0.608000000    -2.619000000
H     0.777000000     0.261000000    -3.176000000
H     1.113000000    -1.452000000    -2.667000000
H    -0.565000000    -0.919000000    -2.968000000
C    -0.768000000     0.596000000    -0.854000000
H    -1.487000000     0.955000000    -1.586000000
C    -0.911000000     1.031000000     0.490000000
H    -1.695000000     1.752000000     0.709000000
C    -0.138000000     0.457000000     1.508000000
C    -0.344000000     0.844000000     2.970000000
O    -1.366000000     1.504000000     3.248000000
O     0.362000000     0.367000000     3.816000000
