17
-94.85747
C     0.186000000    -0.684000000    -1.327000000
H     0.427000000    -1.269000000    -2.211000000
C     0.425000000    -1.218000000    -0.041000000
H     0.579000000    -2.285000000     0.094000000
C     0.215000000    -0.517000000     1.113000000
C     0.734000000    -1.067000000     2.435000000
H     0.847000000    -0.225000000     3.122000000
H    -0.129000000    -1.659000000     2.748000000
H     1.625000000    -1.695000000     2.361000000
C    -0.345000000     0.733000000     0.999000000
H    -0.523000000     1.355000000     1.873000000
C    -0.608000000     1.311000000    -0.246000000
H    -0.964000000     2.336000000    -0.301000000
C    -0.410000000     0.557000000    -1.393000000
C    -0.637000000     1.248000000    -2.730000000
O    -1.224000000     2.312000000    -2.740000000
O    -0.204000000     0.764000000    -3.749000000
