17
-90.63037
C     1.106000000     0.687000000     0.617000000
H     2.016000000     1.081000000     1.062000000
C     1.200000000    -0.094000000    -0.590000000
H     2.205000000    -0.174000000    -0.997000000
C     0.020000000    -0.715000000    -1.100000000
C     0.119000000    -1.615000000    -2.225000000
H    -0.591000000    -2.400000000    -1.960000000
H    -0.055000000    -0.963000000    -3.084000000
H     1.128000000    -2.029000000    -2.287000000
C    -1.182000000    -0.401000000    -0.472000000
H    -2.105000000    -0.727000000    -0.945000000
C    -1.250000000     0.411000000     0.693000000
H    -2.243000000     0.664000000     1.054000000
C    -0.074000000     0.888000000     1.282000000
C    -0.130000000     1.653000000     2.600000000
O    -1.115000000     1.768000000     3.275000000
O     0.954000000     1.967000000     3.073000000
