17
-93.22106
C     1.138000000     0.331000000     1.039000000
H     1.951000000     0.506000000     1.738000000
C     1.334000000    -0.181000000    -0.258000000
H     2.380000000    -0.363000000    -0.489000000
C     0.278000000    -0.443000000    -1.097000000
C     0.314000000    -1.059000000    -2.487000000
H    -0.204000000    -0.521000000    -3.283000000
H     1.350000000    -1.228000000    -2.788000000
H    -0.031000000    -2.093000000    -2.420000000
C    -1.028000000    -0.239000000    -0.713000000
H    -1.889000000    -0.423000000    -1.350000000
C    -1.298000000     0.292000000     0.563000000
H    -2.299000000     0.663000000     0.764000000
C    -0.203000000     0.553000000     1.467000000
C    -0.559000000     1.168000000     2.772000000
O    -1.625000000     1.679000000     2.971000000
O     0.398000000     1.352000000     3.563000000
