17
-100.92202
C     0.675000000    -0.424000000     1.239000000
H     1.355000000    -0.604000000     2.068000000
C     1.280000000    -0.263000000     0.003000000
H     2.346000000    -0.414000000    -0.147000000
C     0.517000000     0.050000000    -1.096000000
C     1.152000000     0.266000000    -2.399000000
H     0.509000000     0.283000000    -3.282000000
H     1.601000000     1.261000000    -2.406000000
H     1.955000000    -0.429000000    -2.652000000
C    -0.881000000     0.173000000    -0.944000000
H    -1.502000000     0.382000000    -1.811000000
C    -1.475000000     0.083000000     0.297000000
H    -2.553000000     0.192000000     0.385000000
C    -0.689000000    -0.189000000     1.397000000
C    -1.318000000    -0.205000000     2.771000000
O    -2.437000000     0.234000000     2.846000000
O    -0.542000000    -0.391000000     3.726000000
