17
-93.64429
C     0.546000000     1.336000000     0.409000000
H     0.932000000     2.294000000     0.748000000
C     0.892000000     0.634000000    -0.753000000
H     1.686000000     1.001000000    -1.399000000
C     0.300000000    -0.625000000    -1.036000000
C     0.705000000    -1.267000000    -2.308000000
H    -0.013000000    -0.994000000    -3.084000000
H     1.762000000    -1.111000000    -2.535000000
H     0.651000000    -2.344000000    -2.139000000
C    -0.659000000    -1.170000000    -0.172000000
H    -1.109000000    -2.131000000    -0.408000000
C    -0.969000000    -0.468000000     1.008000000
H    -1.735000000    -0.839000000     1.685000000
C    -0.369000000     0.778000000     1.301000000
C    -0.802000000     1.495000000     2.541000000
O    -1.546000000     0.909000000     3.272000000
O    -0.274000000     2.499000000     2.874000000
