17
-93.50073
C     0.871000000     1.108000000     0.317000000
H     1.697000000     1.788000000     0.507000000
C     1.076000000     0.168000000    -0.681000000
H     1.982000000     0.304000000    -1.265000000
C     0.147000000    -0.807000000    -0.891000000
C     0.383000000    -1.701000000    -2.033000000
H     0.504000000    -2.758000000    -1.788000000
H    -0.383000000    -1.603000000    -2.805000000
H     1.290000000    -1.345000000    -2.526000000
C    -1.055000000    -0.872000000    -0.143000000
H    -1.746000000    -1.661000000    -0.431000000
C    -1.253000000     0.070000000     0.867000000
H    -2.130000000    -0.039000000     1.500000000
C    -0.266000000     1.085000000     1.108000000
C    -0.416000000     1.966000000     2.372000000
O    -1.211000000     1.584000000     3.183000000
O     0.509000000     2.718000000     2.712000000
