17
-86.41887
C     1.457000000    -0.180000000    -0.102000000
H     2.525000000    -0.365000000    -0.170000000
C     0.590000000    -0.498000000    -1.099000000
H     1.010000000    -0.800000000    -2.055000000
C    -0.787000000    -0.327000000    -0.912000000
C    -1.733000000    -0.486000000    -1.999000000
H    -1.902000000    -1.549000000    -2.181000000
H    -2.721000000    -0.103000000    -1.735000000
H    -1.444000000    -0.025000000    -2.946000000
C    -1.213000000     0.171000000     0.295000000
H    -2.244000000     0.477000000     0.450000000
C    -0.390000000     0.541000000     1.300000000
H    -0.742000000     1.018000000     2.211000000
C     1.011000000     0.316000000     1.153000000
C     1.952000000     0.546000000     2.274000000
O     1.543000000     1.043000000     3.280000000
O     3.084000000     0.215000000     2.236000000
