17
-87.38728
C     0.823000000     1.059000000     0.604000000
H     1.539000000     1.782000000     0.987000000
C     1.049000000     0.507000000    -0.652000000
H     1.853000000     0.816000000    -1.315000000
C     0.140000000    -0.415000000    -1.135000000
C     0.459000000    -1.144000000    -2.442000000
H    -0.179000000    -0.693000000    -3.206000000
H     1.491000000    -0.860000000    -2.655000000
H     0.290000000    -2.222000000    -2.491000000
C    -0.917000000    -0.853000000    -0.397000000
H    -1.639000000    -1.500000000    -0.889000000
C    -1.116000000    -0.358000000     0.948000000
H    -2.003000000    -0.703000000     1.472000000
C    -0.274000000     0.634000000     1.450000000
C    -0.454000000     1.193000000     2.860000000
O    -1.318000000     0.740000000     3.546000000
O     0.258000000     2.013000000     3.320000000
