17
-92.09010
C     1.232000000     0.810000000     0.004000000
H     2.185000000     1.309000000    -0.152000000
C     0.387000000     0.602000000    -1.095000000
H     0.652000000     0.941000000    -2.094000000
C    -0.805000000    -0.100000000    -0.930000000
C    -1.803000000    -0.220000000    -2.055000000
H    -2.512000000     0.601000000    -1.932000000
H    -1.417000000    -0.298000000    -3.074000000
H    -2.415000000    -1.123000000    -2.013000000
C    -1.106000000    -0.587000000     0.293000000
H    -1.984000000    -1.222000000     0.379000000
C    -0.215000000    -0.469000000     1.333000000
H    -0.419000000    -0.945000000     2.289000000
C     0.988000000     0.171000000     1.199000000
C     2.105000000     0.165000000     2.299000000
O     1.880000000    -0.097000000     3.488000000
O     3.255000000     0.454000000     2.054000000
