17
-97.49168
C     1.451000000     0.200000000    -0.084000000
H     2.523000000     0.146000000    -0.256000000
C     0.574000000     0.299000000    -1.203000000
H     1.039000000     0.486000000    -2.168000000
C    -0.785000000     0.018000000    -0.950000000
C    -1.861000000     0.069000000    -2.033000000
H    -1.513000000     0.748000000    -2.814000000
H    -1.935000000    -0.855000000    -2.611000000
H    -2.844000000     0.330000000    -1.637000000
C    -1.203000000    -0.326000000     0.324000000
H    -2.263000000    -0.501000000     0.488000000
C    -0.326000000    -0.371000000     1.430000000
H    -0.692000000    -0.548000000     2.439000000
C     1.021000000    -0.049000000     1.234000000
C     2.024000000     0.135000000     2.328000000
O     1.577000000     0.122000000     3.452000000
O     3.207000000     0.089000000     2.053000000
