17
-92.97295
C     1.033000000     1.075000000     0.120000000
H     1.856000000     1.784000000     0.145000000
C     0.504000000     0.573000000    -1.099000000
H     0.935000000     0.851000000    -2.057000000
C    -0.510000000    -0.324000000    -1.100000000
C    -0.988000000    -0.971000000    -2.351000000
H    -0.646000000    -1.999000000    -2.490000000
H    -2.060000000    -1.161000000    -2.264000000
H    -0.661000000    -0.400000000    -3.222000000
C    -1.032000000    -0.798000000     0.162000000
H    -1.977000000    -1.319000000     0.035000000
C    -0.455000000    -0.321000000     1.349000000
H    -0.890000000    -0.625000000     2.298000000
C     0.621000000     0.563000000     1.366000000
C     1.191000000     0.952000000     2.693000000
O     1.026000000     0.301000000     3.719000000
O     2.049000000     1.821000000     2.703000000
