17
-96.16040
C    -0.294000000    -0.625000000    -1.362000000
H    -0.245000000    -1.094000000    -2.341000000
C     0.634000000    -1.120000000    -0.403000000
H     1.297000000    -1.947000000    -0.644000000
C     0.816000000    -0.454000000     0.807000000
C     1.869000000    -0.894000000     1.789000000
H     2.762000000    -0.279000000     1.658000000
H     1.526000000    -0.667000000     2.801000000
H     2.193000000    -1.931000000     1.679000000
C    -0.065000000     0.563000000     1.129000000
H    -0.089000000     1.024000000     2.113000000
C    -1.023000000     1.019000000     0.230000000
H    -1.761000000     1.774000000     0.488000000
C    -1.143000000     0.479000000    -1.044000000
C    -2.048000000     1.136000000    -2.015000000
O    -2.629000000     2.202000000    -1.724000000
O    -1.798000000     0.814000000    -3.166000000
