17
-93.61705
C     1.198000000     0.063000000     0.819000000
H     1.935000000     0.036000000     1.618000000
C     0.747000000    -1.073000000     0.243000000
H     1.103000000    -2.053000000     0.552000000
C    -0.347000000    -0.977000000    -0.608000000
C    -1.152000000    -2.261000000    -0.817000000
H    -1.109000000    -2.609000000    -1.851000000
H    -0.839000000    -3.105000000    -0.199000000
H    -2.211000000    -2.195000000    -0.562000000
C    -0.911000000     0.234000000    -0.920000000
H    -1.772000000     0.317000000    -1.579000000
C    -0.341000000     1.392000000    -0.420000000
H    -0.797000000     2.328000000    -0.734000000
C     0.718000000     1.286000000     0.458000000
C     1.104000000     2.550000000     1.169000000
O     1.098000000     3.601000000     0.542000000
O     1.571000000     2.468000000     2.289000000
