17
-94.04916
C     1.063000000    -0.325000000     0.905000000
H     1.922000000    -0.644000000     1.490000000
C     0.183000000    -1.243000000     0.413000000
H     0.237000000    -2.317000000     0.569000000
C    -0.915000000    -0.781000000    -0.326000000
C    -1.706000000    -1.775000000    -1.053000000
H    -1.138000000    -2.695000000    -1.205000000
H    -2.609000000    -1.951000000    -0.465000000
H    -1.976000000    -1.452000000    -2.061000000
C    -1.059000000     0.576000000    -0.580000000
H    -1.900000000     0.944000000    -1.161000000
C    -0.082000000     1.459000000    -0.172000000
H    -0.185000000     2.525000000    -0.357000000
C     0.954000000     1.035000000     0.562000000
C     2.080000000     1.954000000     1.080000000
O     2.196000000     3.061000000     0.513000000
O     2.943000000     1.627000000     1.844000000
