17
-96.23310
C     1.258000000    -0.409000000     0.556000000
H     2.103000000    -0.766000000     1.140000000
C     0.315000000    -1.269000000     0.095000000
H     0.471000000    -2.345000000     0.108000000
C    -0.900000000    -0.723000000    -0.393000000
C    -1.980000000    -1.712000000    -0.776000000
H    -1.997000000    -2.648000000    -0.213000000
H    -2.905000000    -1.145000000    -0.653000000
H    -1.941000000    -1.930000000    -1.845000000
C    -1.009000000     0.593000000    -0.602000000
H    -1.895000000     1.000000000    -1.082000000
C    -0.046000000     1.462000000    -0.062000000
H    -0.127000000     2.541000000    -0.171000000
C     1.097000000     0.940000000     0.560000000
C     2.224000000     1.904000000     0.998000000
O     2.158000000     3.123000000     0.810000000
O     3.175000000     1.381000000     1.532000000
