17
-90.59470
C     1.315000000    -0.599000000     0.677000000
H     2.121000000    -1.056000000     1.246000000
C     0.235000000    -1.317000000     0.032000000
H     0.254000000    -2.394000000     0.177000000
C    -0.803000000    -0.654000000    -0.645000000
C    -1.951000000    -1.502000000    -1.322000000
H    -2.810000000    -0.835000000    -1.422000000
H    -1.668000000    -1.811000000    -2.331000000
H    -2.263000000    -2.344000000    -0.702000000
C    -0.946000000     0.706000000    -0.562000000
H    -1.769000000     1.213000000    -1.060000000
C     0.083000000     1.453000000     0.074000000
H    -0.054000000     2.531000000     0.094000000
C     1.231000000     0.823000000     0.684000000
C     2.151000000     1.670000000     1.475000000
O     2.190000000     2.847000000     1.142000000
O     2.691000000     1.263000000     2.445000000
