17
-89.67522
C    -0.199000000     0.297000000     1.422000000
H    -0.416000000     0.449000000     2.476000000
C    -0.483000000    -0.843000000     0.804000000
H    -0.927000000    -1.716000000     1.275000000
C    -0.105000000    -1.106000000    -0.487000000
C    -0.420000000    -2.453000000    -1.125000000
H    -1.293000000    -2.887000000    -0.634000000
H    -0.661000000    -2.288000000    -2.177000000
H     0.509000000    -3.026000000    -1.145000000
C     0.486000000    -0.094000000    -1.252000000
H     0.538000000    -0.209000000    -2.332000000
C     0.579000000     1.201000000    -0.743000000
H     0.786000000     2.105000000    -1.311000000
C     0.266000000     1.361000000     0.667000000
C     0.403000000     2.683000000     1.342000000
O     0.723000000     3.722000000     0.691000000
O     0.213000000     2.799000000     2.525000000
