17
-94.55130
C     0.488000000     0.783000000     1.162000000
H     0.674000000     1.390000000     2.045000000
C    -0.810000000     0.790000000     0.614000000
H    -1.529000000     1.240000000     1.295000000
C    -1.150000000     0.027000000    -0.462000000
C    -2.612000000    -0.223000000    -0.827000000
H    -3.005000000     0.640000000    -1.369000000
H    -2.715000000    -1.199000000    -1.305000000
H    -3.170000000    -0.375000000     0.099000000
C    -0.117000000    -0.459000000    -1.244000000
H    -0.375000000    -0.978000000    -2.163000000
C     1.218000000    -0.464000000    -0.774000000
H     1.952000000    -1.020000000    -1.351000000
C     1.508000000     0.156000000     0.465000000
C     2.833000000    -0.046000000     1.082000000
O     3.670000000    -0.856000000     0.648000000
O     3.141000000     0.590000000     2.084000000
