17
-90.41301
C     0.052000000     0.638000000     1.273000000
H     0.093000000     1.060000000     2.273000000
C    -0.303000000    -0.660000000     1.076000000
H    -0.558000000    -1.274000000     1.935000000
C    -0.286000000    -1.127000000    -0.250000000
C    -0.560000000    -2.590000000    -0.444000000
H    -1.629000000    -2.732000000    -0.613000000
H    -0.111000000    -3.039000000    -1.333000000
H    -0.130000000    -3.227000000     0.332000000
C     0.087000000    -0.328000000    -1.318000000
H     0.172000000    -0.827000000    -2.280000000
C     0.423000000     0.997000000    -1.041000000
H     0.782000000     1.581000000    -1.885000000
C     0.351000000     1.543000000     0.262000000
C     0.595000000     2.937000000     0.614000000
O     0.681000000     3.682000000    -0.325000000
O     0.342000000     3.359000000     1.727000000
