17
-94.12454
C     1.138000000     0.628000000     0.743000000
H     1.975000000     1.073000000     1.275000000
C    -0.229000000     0.894000000     0.996000000
H    -0.574000000     1.641000000     1.705000000
C    -1.166000000     0.181000000     0.240000000
C    -2.596000000     0.281000000     0.709000000
H    -3.022000000     1.220000000     0.347000000
H    -3.194000000    -0.481000000     0.205000000
H    -2.754000000     0.240000000     1.788000000
C    -0.804000000    -0.683000000    -0.739000000
H    -1.604000000    -1.126000000    -1.327000000
C     0.548000000    -0.909000000    -1.078000000
H     0.837000000    -1.561000000    -1.898000000
C     1.509000000    -0.244000000    -0.342000000
C     2.944000000    -0.433000000    -0.711000000
O     3.161000000    -0.939000000    -1.774000000
O     3.827000000     0.215000000    -0.145000000
