17
-100.61117
C    -0.287000000     0.051000000    -1.469000000
H    -0.340000000     0.118000000    -2.552000000
C     0.923000000    -0.298000000    -0.849000000
H     1.788000000    -0.478000000    -1.482000000
C     1.059000000    -0.363000000     0.525000000
C     2.425000000    -0.667000000     1.152000000
H     2.464000000    -0.124000000     2.099000000
H     2.653000000    -1.734000000     1.200000000
H     3.251000000    -0.285000000     0.548000000
C     0.012000000     0.025000000     1.279000000
H     0.180000000     0.176000000     2.342000000
C    -1.224000000     0.363000000     0.702000000
H    -2.041000000     0.657000000     1.356000000
C    -1.392000000     0.387000000    -0.667000000
C    -2.816000000     0.641000000    -1.220000000
O    -3.633000000     1.325000000    -0.605000000
O    -3.026000000     0.213000000    -2.364000000
