17
-98.77538
C     1.393000000    -0.035000000    -0.552000000
H     2.433000000    -0.134000000    -0.854000000
C     1.003000000    -0.293000000     0.771000000
H     1.728000000    -0.579000000     1.528000000
C    -0.303000000    -0.204000000     1.195000000
C    -0.765000000    -0.337000000     2.609000000
H    -0.100000000     0.197000000     3.291000000
H    -1.841000000    -0.245000000     2.769000000
H    -0.707000000    -1.387000000     2.904000000
C    -1.256000000     0.088000000     0.239000000
H    -2.318000000     0.112000000     0.471000000
C    -0.910000000     0.245000000    -1.135000000
H    -1.702000000     0.445000000    -1.851000000
C     0.426000000     0.181000000    -1.553000000
C     0.885000000     0.521000000    -2.921000000
O     0.047000000     0.396000000    -3.828000000
O     1.979000000     1.035000000    -3.084000000
