17
-92.52606
C     0.956000000     1.101000000    -0.263000000
H     1.558000000     2.001000000    -0.356000000
C     0.445000000     0.774000000     0.923000000
H     0.703000000     1.357000000     1.803000000
C    -0.417000000    -0.284000000     1.111000000
C    -0.980000000    -0.603000000     2.475000000
H    -1.850000000    -1.254000000     2.369000000
H    -0.196000000    -0.947000000     3.153000000
H    -1.409000000     0.326000000     2.856000000
C    -0.793000000    -1.025000000    -0.009000000
H    -1.412000000    -1.902000000     0.163000000
C    -0.358000000    -0.669000000    -1.283000000
H    -0.721000000    -1.316000000    -2.077000000
C     0.570000000     0.381000000    -1.409000000
C     1.135000000     0.674000000    -2.790000000
O     0.872000000    -0.166000000    -3.636000000
O     1.893000000     1.549000000    -3.030000000
