17
-99.50086
C     0.480000000     1.242000000    -0.573000000
H     1.006000000     2.148000000    -0.862000000
C     0.723000000     0.781000000     0.714000000
H     1.351000000     1.394000000     1.355000000
C     0.187000000    -0.403000000     1.121000000
C     0.690000000    -0.998000000     2.466000000
H     0.938000000    -2.061000000     2.512000000
H     1.630000000    -0.465000000     2.624000000
H     0.026000000    -0.728000000     3.290000000
C    -0.630000000    -1.144000000     0.267000000
H    -1.044000000    -2.099000000     0.581000000
C    -0.956000000    -0.668000000    -1.022000000
H    -1.720000000    -1.181000000    -1.600000000
C    -0.410000000     0.542000000    -1.431000000
C    -0.681000000     1.066000000    -2.783000000
O    -1.205000000     0.333000000    -3.644000000
O    -0.392000000     2.249000000    -3.007000000
