17
-86.04400
C    -0.264000000    -0.865000000    -1.091000000
H    -0.483000000    -1.607000000    -1.855000000
C     0.789000000    -1.003000000    -0.268000000
H     1.418000000    -1.881000000    -0.397000000
C     1.132000000     0.019000000     0.651000000
C     2.288000000    -0.128000000     1.515000000
H     2.574000000    -1.165000000     1.700000000
H     3.175000000     0.386000000     1.139000000
H     2.067000000     0.317000000     2.488000000
C     0.095000000     1.003000000     0.846000000
H     0.190000000     1.803000000     1.577000000
C    -1.093000000     1.017000000     0.121000000
H    -1.850000000     1.741000000     0.413000000
C    -1.285000000     0.083000000    -0.920000000
C    -2.535000000     0.095000000    -1.807000000
O    -3.283000000     1.017000000    -1.679000000
O    -2.928000000    -0.840000000    -2.433000000
