17
-94.73102
C     0.030000000     0.784000000    -1.229000000
H     0.080000000     1.152000000    -2.250000000
C    -0.406000000    -0.564000000    -1.102000000
H    -0.853000000    -1.080000000    -1.947000000
C    -0.401000000    -1.177000000     0.117000000
C    -1.103000000    -2.501000000     0.258000000
H    -2.157000000    -2.311000000     0.475000000
H    -0.882000000    -3.121000000    -0.613000000
H    -0.626000000    -3.017000000     1.094000000
C     0.165000000    -0.502000000     1.193000000
H     0.211000000    -1.102000000     2.099000000
C     0.624000000     0.827000000     1.121000000
H     1.086000000     1.280000000     1.994000000
C     0.603000000     1.499000000    -0.133000000
C     1.179000000     2.878000000    -0.361000000
O     1.525000000     3.472000000     0.677000000
O     0.919000000     3.488000000    -1.389000000
