17
-83.01427
C    -0.379000000    -0.823000000    -1.163000000
H    -0.354000000    -1.346000000    -2.115000000
C     0.788000000    -0.981000000    -0.396000000
H     1.275000000    -1.937000000    -0.575000000
C     0.999000000    -0.163000000     0.705000000
C     2.207000000    -0.419000000     1.602000000
H     2.112000000     0.352000000     2.370000000
H     2.216000000    -1.323000000     2.214000000
H     3.169000000    -0.251000000     1.112000000
C     0.104000000     0.884000000     0.976000000
H     0.323000000     1.578000000     1.784000000
C    -0.950000000     0.996000000     0.096000000
H    -1.486000000     1.916000000     0.311000000
C    -1.294000000     0.187000000    -0.942000000
C    -2.534000000     0.403000000    -1.749000000
O    -3.396000000     1.227000000    -1.507000000
O    -2.794000000    -0.306000000    -2.724000000
