17
-96.10856
C     0.024000000     0.758000000    -1.248000000
H     0.146000000     1.216000000    -2.226000000
C    -0.369000000    -0.574000000    -1.119000000
H    -0.545000000    -1.134000000    -2.035000000
C    -0.473000000    -1.150000000     0.134000000
C    -0.875000000    -2.602000000     0.330000000
H    -0.878000000    -2.877000000     1.387000000
H    -1.872000000    -2.823000000    -0.059000000
H    -0.226000000    -3.244000000    -0.269000000
C     0.009000000    -0.405000000     1.228000000
H     0.085000000    -0.899000000     2.193000000
C     0.483000000     0.894000000     1.113000000
H     0.960000000     1.362000000     1.971000000
C     0.489000000     1.508000000    -0.174000000
C     0.982000000     2.927000000    -0.352000000
O     1.005000000     3.669000000     0.598000000
O     1.047000000     3.382000000    -1.468000000
