17
-97.02539
C     0.653000000     0.567000000    -1.241000000
H     1.141000000     0.790000000    -2.187000000
C     0.028000000    -0.661000000    -1.120000000
H     0.003000000    -1.318000000    -1.986000000
C    -0.506000000    -1.121000000     0.102000000
C    -1.160000000    -2.528000000     0.201000000
H    -0.442000000    -3.246000000     0.605000000
H    -1.916000000    -2.436000000     0.983000000
H    -1.566000000    -2.935000000    -0.727000000
C    -0.388000000    -0.271000000     1.200000000
H    -0.807000000    -0.647000000     2.129000000
C     0.109000000     1.052000000     1.111000000
H    -0.006000000     1.674000000     1.995000000
C     0.646000000     1.472000000    -0.126000000
C     1.235000000     2.823000000    -0.303000000
O     1.462000000     3.408000000     0.749000000
O     1.521000000     3.381000000    -1.380000000
