17
-99.29710
C    -0.179000000     1.107000000    -0.927000000
H    -0.394000000     1.939000000    -1.593000000
C    -0.871000000    -0.091000000    -0.986000000
H    -1.683000000    -0.254000000    -1.691000000
C    -0.540000000    -1.091000000    -0.077000000
C    -1.268000000    -2.413000000    -0.080000000
H    -1.908000000    -2.581000000     0.789000000
H    -1.875000000    -2.608000000    -0.967000000
H    -0.537000000    -3.224000000    -0.127000000
C     0.331000000    -0.844000000     0.967000000
H     0.442000000    -1.598000000     1.742000000
C     1.014000000     0.398000000     1.065000000
H     1.697000000     0.582000000     1.890000000
C     0.716000000     1.404000000     0.143000000
C     1.459000000     2.739000000     0.009000000
O     2.517000000     2.926000000     0.601000000
O     1.079000000     3.607000000    -0.766000000
