17
-96.96339
C    -0.367000000     0.164000000    -1.390000000
H    -0.589000000     0.253000000    -2.450000000
C    -0.333000000    -1.036000000    -0.651000000
H    -0.647000000    -1.988000000    -1.070000000
C     0.026000000    -1.065000000     0.675000000
C     0.077000000    -2.463000000     1.396000000
H    -0.875000000    -2.992000000     1.314000000
H     0.931000000    -3.065000000     1.080000000
H     0.222000000    -2.269000000     2.461000000
C     0.369000000     0.160000000     1.265000000
H     0.590000000     0.120000000     2.329000000
C     0.380000000     1.388000000     0.504000000
H     0.578000000     2.322000000     1.024000000
C    -0.012000000     1.403000000    -0.822000000
C    -0.124000000     2.678000000    -1.647000000
O     0.347000000     3.707000000    -1.184000000
O    -0.572000000     2.691000000    -2.828000000
