17
-100.65974
C    -1.093000000     0.548000000     0.857000000
H    -2.041000000     0.761000000     1.345000000
C    -1.029000000    -0.695000000     0.179000000
H    -1.884000000    -1.364000000     0.218000000
C     0.093000000    -1.116000000    -0.569000000
C     0.120000000    -2.501000000    -1.154000000
H     0.457000000    -3.198000000    -0.385000000
H    -0.903000000    -2.782000000    -1.414000000
H     0.749000000    -2.553000000    -2.045000000
C     1.184000000    -0.227000000    -0.699000000
H     2.071000000    -0.419000000    -1.298000000
C     1.057000000     1.029000000    -0.109000000
H     1.813000000     1.783000000    -0.315000000
C    -0.017000000     1.404000000     0.726000000
C    -0.197000000     2.763000000     1.359000000
O     0.658000000     3.606000000     1.093000000
O    -1.046000000     2.958000000     2.212000000
