17
-94.19255
C    -0.516000000    -1.294000000    -0.498000000
H    -0.810000000    -2.215000000    -0.996000000
C     0.769000000    -1.066000000    -0.106000000
H     1.504000000    -1.867000000    -0.121000000
C     1.156000000     0.155000000     0.436000000
C     2.530000000     0.277000000     0.971000000
H     3.139000000    -0.605000000     0.764000000
H     2.996000000     1.136000000     0.485000000
H     2.493000000     0.363000000     2.059000000
C     0.267000000     1.251000000     0.490000000
H     0.447000000     2.170000000     1.042000000
C    -1.047000000     1.047000000    -0.035000000
H    -1.698000000     1.915000000    -0.098000000
C    -1.462000000    -0.230000000    -0.514000000
C    -2.869000000    -0.309000000    -1.101000000
O    -3.446000000     0.639000000    -1.662000000
O    -3.452000000    -1.360000000    -1.110000000
