17
-87.40310
C    -1.006000000     0.716000000     0.844000000
H    -1.611000000     1.327000000     1.510000000
C    -0.067000000    -0.210000000     1.298000000
H    -0.017000000    -0.409000000     2.365000000
C     0.842000000    -0.857000000     0.396000000
C     1.793000000    -1.905000000     0.907000000
H     1.194000000    -2.698000000     1.361000000
H     2.447000000    -2.401000000     0.187000000
H     2.493000000    -1.507000000     1.644000000
C     0.685000000    -0.583000000    -0.920000000
H     1.290000000    -1.086000000    -1.670000000
C    -0.240000000     0.408000000    -1.411000000
H    -0.269000000     0.686000000    -2.461000000
C    -1.049000000     1.094000000    -0.544000000
C    -1.863000000     2.263000000    -1.024000000
O    -1.860000000     2.578000000    -2.164000000
O    -2.759000000     2.591000000    -0.318000000
