17
-94.11601
C    -0.771000000     1.306000000     0.160000000
H    -1.335000000     2.223000000     0.311000000
C    -0.650000000     0.274000000     1.110000000
H    -1.256000000     0.338000000     2.010000000
C     0.108000000    -0.906000000     0.856000000
C     0.013000000    -2.016000000     1.871000000
H    -0.001000000    -2.910000000     1.245000000
H     0.934000000    -2.132000000     2.448000000
H    -0.793000000    -2.017000000     2.608000000
C     0.776000000    -1.045000000    -0.392000000
H     1.317000000    -1.936000000    -0.702000000
C     0.734000000     0.041000000    -1.249000000
H     1.024000000    -0.089000000    -2.288000000
C    -0.009000000     1.194000000    -1.010000000
C    -0.095000000     2.252000000    -2.080000000
O     0.794000000     2.175000000    -2.905000000
O    -0.792000000     3.252000000    -1.992000000
