17
-94.87773
C    -0.802000000     0.283000000     1.260000000
H    -1.173000000     0.474000000     2.264000000
C    -0.143000000    -0.915000000     0.901000000
H    -0.174000000    -1.735000000     1.614000000
C     0.530000000    -1.043000000    -0.288000000
C     1.083000000    -2.439000000    -0.635000000
H     0.994000000    -2.980000000     0.309000000
H     0.418000000    -2.966000000    -1.323000000
H     2.109000000    -2.308000000    -0.985000000
C     0.458000000    -0.099000000    -1.267000000
H     0.903000000    -0.193000000    -2.254000000
C    -0.120000000     1.149000000    -0.915000000
H    -0.056000000     1.971000000    -1.623000000
C    -0.626000000     1.349000000     0.364000000
C    -1.042000000     2.808000000     0.751000000
O    -0.483000000     3.732000000     0.211000000
O    -1.869000000     2.908000000     1.611000000
