17
-87.32096
C    -0.768000000     1.227000000     0.435000000
H    -1.323000000     2.072000000     0.837000000
C    -0.768000000     0.043000000     1.144000000
H    -1.413000000     0.050000000     2.019000000
C    -0.006000000    -1.051000000     0.641000000
C     0.159000000    -2.315000000     1.388000000
H     1.143000000    -2.723000000     1.148000000
H     0.148000000    -2.197000000     2.473000000
H    -0.607000000    -3.003000000     1.024000000
C     0.761000000    -0.905000000    -0.492000000
H     1.331000000    -1.765000000    -0.834000000
C     0.783000000     0.279000000    -1.226000000
H     1.336000000     0.325000000    -2.161000000
C    -0.068000000     1.368000000    -0.784000000
C    -0.206000000     2.564000000    -1.626000000
O    -0.068000000     2.439000000    -2.838000000
O    -0.431000000     3.589000000    -1.151000000
