17
-90.89111
C    -0.459000000    -0.843000000    -1.050000000
H    -0.669000000    -1.623000000    -1.777000000
C     0.547000000    -1.126000000    -0.184000000
H     0.985000000    -2.119000000    -0.233000000
C     0.973000000    -0.168000000     0.720000000
C     1.901000000    -0.735000000     1.695000000
H     2.887000000    -0.559000000     1.259000000
H     1.909000000    -0.187000000     2.640000000
H     1.742000000    -1.800000000     1.876000000
C     0.288000000     1.036000000     0.902000000
H     0.643000000     1.633000000     1.739000000
C    -0.752000000     1.310000000     0.029000000
H    -1.286000000     2.256000000     0.072000000
C    -1.178000000     0.401000000    -0.986000000
C    -2.247000000     0.728000000    -1.959000000
O    -3.108000000     1.569000000    -1.690000000
O    -2.179000000     0.230000000    -3.048000000
