17
-92.87013
C    -0.338000000     1.130000000    -1.008000000
H    -0.663000000     1.747000000    -1.842000000
C    -1.245000000     0.231000000    -0.363000000
H    -2.306000000     0.219000000    -0.600000000
C    -0.824000000    -0.759000000     0.535000000
C    -1.756000000    -1.697000000     1.171000000
H    -1.271000000    -2.429000000     1.820000000
H    -2.513000000    -1.128000000     1.715000000
H    -2.287000000    -2.227000000     0.377000000
C     0.558000000    -0.862000000     0.830000000
H     0.945000000    -1.694000000     1.412000000
C     1.425000000    -0.050000000     0.165000000
H     2.440000000    -0.058000000     0.555000000
C     1.007000000     0.977000000    -0.707000000
C     1.990000000     1.938000000    -1.209000000
O     3.149000000     1.726000000    -0.974000000
O     1.685000000     2.929000000    -1.870000000
