17
-100.78066
C    -1.078000000    -0.867000000    -0.442000000
H    -1.810000000    -1.589000000    -0.796000000
C    -0.121000000    -1.196000000     0.525000000
H    -0.077000000    -2.160000000     1.025000000
C     0.800000000    -0.230000000     0.884000000
C     1.912000000    -0.645000000     1.853000000
H     1.677000000    -1.568000000     2.386000000
H     2.791000000    -0.875000000     1.248000000
H     2.061000000     0.077000000     2.659000000
C     0.820000000     1.020000000     0.261000000
H     1.635000000     1.713000000     0.454000000
C    -0.110000000     1.302000000    -0.751000000
H    -0.039000000     2.292000000    -1.195000000
C    -1.096000000     0.358000000    -1.110000000
C    -2.171000000     0.691000000    -2.075000000
O    -2.501000000     1.865000000    -2.181000000
O    -2.693000000    -0.180000000    -2.749000000
