17
-85.60399
C     0.463000000     1.336000000     0.056000000
H     0.641000000     2.384000000     0.282000000
C    -0.560000000     0.802000000     0.745000000
H    -1.130000000     1.588000000     1.233000000
C    -0.931000000    -0.553000000     0.643000000
C    -2.165000000    -1.029000000     1.347000000
H    -2.565000000    -1.867000000     0.773000000
H    -2.063000000    -1.205000000     2.420000000
H    -2.989000000    -0.323000000     1.227000000
C    -0.190000000    -1.320000000    -0.169000000
H    -0.462000000    -2.342000000    -0.418000000
C     0.936000000    -0.787000000    -0.827000000
H     1.629000000    -1.384000000    -1.414000000
C     1.332000000     0.541000000    -0.721000000
C     2.480000000     1.221000000    -1.420000000
O     3.165000000     0.518000000    -2.119000000
O     2.412000000     2.420000000    -1.637000000
