17
-89.99334
C     0.262000000     1.069000000    -0.915000000
H     0.422000000     1.954000000    -1.526000000
C    -0.988000000     0.766000000    -0.299000000
H    -1.801000000     1.477000000    -0.418000000
C    -1.039000000    -0.276000000     0.561000000
C    -2.387000000    -0.547000000     1.226000000
H    -2.451000000    -0.039000000     2.190000000
H    -3.299000000    -0.520000000     0.625000000
H    -2.240000000    -1.538000000     1.661000000
C     0.072000000    -1.081000000     0.816000000
H    -0.092000000    -1.920000000     1.487000000
C     1.270000000    -0.795000000     0.108000000
H     2.091000000    -1.505000000     0.171000000
C     1.354000000     0.286000000    -0.805000000
C     2.600000000     0.791000000    -1.440000000
O     3.638000000     0.159000000    -1.234000000
O     2.589000000     1.720000000    -2.216000000
