17
-91.13444
C    -0.375000000     0.869000000    -1.181000000
H    -0.751000000     1.532000000    -1.956000000
C    -1.129000000     0.666000000     0.030000000
H    -2.131000000     1.039000000     0.226000000
C    -0.627000000    -0.162000000     1.035000000
C    -1.568000000    -0.465000000     2.192000000
H    -2.393000000     0.250000000     2.194000000
H    -1.909000000    -1.499000000     2.116000000
H    -0.946000000    -0.318000000     3.078000000
C     0.552000000    -0.855000000     0.883000000
H     0.873000000    -1.540000000     1.664000000
C     1.365000000    -0.664000000    -0.252000000
H     2.369000000    -1.066000000    -0.357000000
C     0.853000000     0.181000000    -1.295000000
C     1.701000000     0.567000000    -2.463000000
O     2.785000000     0.078000000    -2.649000000
O     1.337000000     1.390000000    -3.273000000
