17
-100.93589
C     0.288000000     1.391000000    -0.473000000
H     0.468000000     2.406000000    -0.821000000
C    -0.805000000     0.970000000     0.271000000
H    -1.462000000     1.715000000     0.713000000
C    -0.984000000    -0.352000000     0.675000000
C    -2.135000000    -0.732000000     1.600000000
H    -1.774000000    -1.151000000     2.541000000
H    -2.814000000     0.113000000     1.729000000
H    -2.744000000    -1.553000000     1.216000000
C    -0.050000000    -1.271000000     0.320000000
H    -0.175000000    -2.312000000     0.607000000
C     1.052000000    -0.893000000    -0.464000000
H     1.723000000    -1.690000000    -0.773000000
C     1.261000000     0.433000000    -0.883000000
C     2.397000000     0.862000000    -1.831000000
O     3.261000000     0.030000000    -2.144000000
O     2.496000000     2.038000000    -2.289000000
