17
-94.94823
C    -0.556000000     1.029000000    -0.941000000
H    -1.116000000     1.774000000    -1.500000000
C    -1.208000000     0.447000000     0.150000000
H    -2.237000000     0.736000000     0.348000000
C    -0.643000000    -0.564000000     0.883000000
C    -1.356000000    -1.180000000     2.003000000
H    -1.127000000    -2.248000000     1.986000000
H    -1.128000000    -0.673000000     2.943000000
H    -2.443000000    -1.211000000     1.906000000
C     0.633000000    -0.937000000     0.588000000
H     1.139000000    -1.716000000     1.154000000
C     1.370000000    -0.302000000    -0.403000000
H     2.345000000    -0.689000000    -0.688000000
C     0.796000000     0.690000000    -1.107000000
C     1.612000000     1.377000000    -2.203000000
O     2.722000000     0.996000000    -2.507000000
O     1.201000000     2.469000000    -2.604000000
