17
-96.33925
C     0.601000000    -0.978000000    -1.002000000
H     1.226000000    -1.548000000    -1.685000000
C     0.682000000     0.411000000    -1.016000000
H     1.274000000     0.968000000    -1.738000000
C     0.038000000     1.219000000    -0.123000000
C     0.211000000     2.719000000    -0.108000000
H    -0.097000000     3.188000000    -1.046000000
H    -0.221000000     3.252000000     0.741000000
H     1.261000000     2.909000000     0.124000000
C    -0.718000000     0.588000000     0.914000000
H    -1.193000000     1.244000000     1.639000000
C    -0.839000000    -0.777000000     0.921000000
H    -1.397000000    -1.231000000     1.736000000
C    -0.207000000    -1.571000000     0.015000000
C    -0.228000000    -3.065000000     0.178000000
O    -0.738000000    -3.603000000     1.130000000
O     0.345000000    -3.730000000    -0.676000000
