17
-85.57817
C    -1.036000000    -0.737000000    -0.678000000
H    -1.832000000    -1.103000000    -1.321000000
C    -1.046000000     0.535000000    -0.256000000
H    -1.711000000     1.192000000    -0.810000000
C    -0.062000000     1.170000000     0.511000000
C    -0.049000000     2.624000000     0.634000000
H    -0.131000000     3.066000000     1.629000000
H     0.897000000     2.984000000     0.224000000
H    -0.956000000     2.943000000     0.117000000
C     1.020000000     0.322000000     0.879000000
H     1.821000000     0.771000000     1.461000000
C     1.006000000    -1.023000000     0.498000000
H     1.864000000    -1.613000000     0.810000000
C     0.016000000    -1.585000000    -0.264000000
C    -0.001000000    -2.904000000    -0.922000000
O     0.891000000    -3.708000000    -0.623000000
O    -0.697000000    -2.936000000    -1.881000000
