17
-88.68143
C    -0.698000000    -0.272000000    -1.268000000
H    -1.270000000    -0.360000000    -2.189000000
C    -0.520000000     0.958000000    -0.788000000
H    -0.741000000     1.832000000    -1.395000000
C     0.213000000     1.160000000     0.436000000
C     0.839000000     2.537000000     0.753000000
H     0.855000000     3.225000000    -0.095000000
H     0.322000000     2.926000000     1.632000000
H     1.863000000     2.211000000     0.951000000
C     0.639000000     0.031000000     1.162000000
H     1.180000000     0.149000000     2.097000000
C     0.209000000    -1.234000000     0.706000000
H     0.374000000    -2.045000000     1.410000000
C    -0.463000000    -1.406000000    -0.493000000
C    -0.895000000    -2.846000000    -0.860000000
O    -0.647000000    -3.780000000    -0.089000000
O    -1.268000000    -3.092000000    -1.966000000
