17
-93.88887
C    -0.515000000    -0.301000000    -1.397000000
H    -0.825000000    -0.359000000    -2.437000000
C    -0.622000000     0.918000000    -0.704000000
H    -1.006000000     1.820000000    -1.174000000
C    -0.091000000     1.082000000     0.576000000
C    -0.190000000     2.407000000     1.266000000
H    -0.662000000     2.196000000     2.228000000
H     0.798000000     2.863000000     1.358000000
H    -0.808000000     3.085000000     0.674000000
C     0.432000000     0.036000000     1.177000000
H     0.833000000     0.109000000     2.184000000
C     0.565000000    -1.220000000     0.599000000
H     1.253000000    -1.969000000     0.983000000
C     0.080000000    -1.370000000    -0.706000000
C     0.183000000    -2.742000000    -1.359000000
O     0.748000000    -3.622000000    -0.747000000
O    -0.180000000    -2.940000000    -2.524000000
