17
-100.13846
C    -0.969000000    -0.652000000    -0.943000000
H    -1.643000000    -1.266000000    -1.535000000
C     0.419000000    -0.878000000    -0.958000000
H     0.886000000    -1.617000000    -1.603000000
C     1.248000000    -0.159000000    -0.094000000
C     2.718000000    -0.540000000     0.074000000
H     3.280000000     0.341000000     0.393000000
H     2.822000000    -1.307000000     0.845000000
H     3.058000000    -0.959000000    -0.875000000
C     0.673000000     0.786000000     0.791000000
H     1.342000000     1.290000000     1.484000000
C    -0.701000000     1.004000000     0.783000000
H    -1.029000000     1.805000000     1.441000000
C    -1.577000000     0.269000000    -0.075000000
C    -3.118000000     0.556000000     0.026000000
O    -3.451000000     1.170000000     1.019000000
O    -3.951000000     0.153000000    -0.779000000
