17
-86.11522
C     0.744000000    -0.194000000    -1.201000000
H     1.138000000    -0.248000000    -2.212000000
C    -0.516000000    -0.729000000    -0.948000000
H    -1.050000000    -1.216000000    -1.760000000
C    -1.038000000    -0.641000000     0.280000000
C    -2.385000000    -1.216000000     0.585000000
H    -2.734000000    -0.911000000     1.574000000
H    -3.033000000    -0.656000000    -0.092000000
H    -2.476000000    -2.296000000     0.455000000
C    -0.387000000     0.158000000     1.224000000
H    -0.834000000     0.294000000     2.206000000
C     0.788000000     0.856000000     0.918000000
H     1.320000000     1.459000000     1.650000000
C     1.375000000     0.640000000    -0.304000000
C     2.656000000     1.403000000    -0.694000000
O     3.337000000     1.913000000     0.126000000
O     3.100000000     1.377000000    -1.809000000
