17
-92.06184
C     0.162000000     0.371000000    -1.427000000
H     0.215000000     0.712000000    -2.458000000
C    -0.759000000    -0.575000000    -0.970000000
H    -1.406000000    -1.035000000    -1.712000000
C    -0.785000000    -0.891000000     0.402000000
C    -1.774000000    -1.807000000     0.948000000
H    -2.674000000    -1.218000000     1.140000000
H    -1.930000000    -2.571000000     0.184000000
H    -1.518000000    -2.383000000     1.840000000
C     0.069000000    -0.260000000     1.272000000
H    -0.018000000    -0.498000000     2.329000000
C     0.893000000     0.758000000     0.826000000
H     1.502000000     1.263000000     1.572000000
C     1.057000000     1.022000000    -0.561000000
C     2.059000000     2.075000000    -0.985000000
O     2.807000000     2.693000000    -0.248000000
O     2.095000000     2.350000000    -2.146000000
