17
-89.03361
C     1.208000000     0.407000000     0.752000000
H     2.095000000     0.741000000     1.283000000
C     1.182000000    -0.583000000    -0.266000000
H     2.070000000    -1.143000000    -0.547000000
C    -0.034000000    -0.833000000    -0.907000000
C    -0.131000000    -1.976000000    -1.885000000
H     0.464000000    -2.883000000    -1.753000000
H    -1.174000000    -2.257000000    -2.042000000
H     0.189000000    -1.645000000    -2.875000000
C    -1.150000000    -0.024000000    -0.600000000
H    -2.109000000    -0.132000000    -1.101000000
C    -1.024000000     0.877000000     0.350000000
H    -2.002000000     1.252000000     0.640000000
C     0.106000000     1.164000000     1.067000000
C     0.115000000     2.154000000     2.256000000
O    -0.820000000     2.895000000     2.557000000
O     1.022000000     1.985000000     3.069000000
