17
-94.42705
C     0.193000000     0.551000000     1.357000000
H     0.590000000     0.918000000     2.300000000
C     1.010000000    -0.375000000     0.715000000
H     1.880000000    -0.774000000     1.230000000
C     0.581000000    -0.898000000    -0.507000000
C     1.493000000    -1.958000000    -1.045000000
H     1.183000000    -2.234000000    -2.055000000
H     2.517000000    -1.609000000    -1.188000000
H     1.452000000    -2.876000000    -0.454000000
C    -0.551000000    -0.466000000    -1.202000000
H    -0.827000000    -0.943000000    -2.139000000
C    -1.334000000     0.548000000    -0.596000000
H    -2.203000000     0.834000000    -1.184000000
C    -0.897000000     1.079000000     0.719000000
C    -1.536000000     2.425000000     1.218000000
O    -2.275000000     3.060000000     0.473000000
O    -1.275000000     2.719000000     2.353000000
