17
-86.22784
C     0.448000000    -0.902000000     1.069000000
H     0.821000000    -1.611000000     1.804000000
C     0.495000000    -1.228000000    -0.272000000
H     0.717000000    -2.183000000    -0.743000000
C     0.053000000    -0.329000000    -1.207000000
C    -0.004000000    -0.641000000    -2.651000000
H    -0.670000000    -1.450000000    -2.959000000
H    -0.332000000     0.198000000    -3.269000000
H     0.987000000    -0.956000000    -2.983000000
C    -0.382000000     0.960000000    -0.778000000
H    -0.865000000     1.677000000    -1.437000000
C    -0.411000000     1.267000000     0.608000000
H    -0.695000000     2.243000000     0.992000000
C    -0.008000000     0.309000000     1.557000000
C    -0.039000000     0.743000000     3.034000000
O    -0.627000000     1.733000000     3.342000000
O     0.508000000     0.163000000     3.898000000
