17
-89.75212
C    -0.999000000    -0.964000000     0.379000000
H    -1.675000000    -1.799000000     0.544000000
C     0.137000000    -1.206000000    -0.372000000
H     0.438000000    -2.222000000    -0.616000000
C     1.003000000    -0.162000000    -0.611000000
C     2.296000000    -0.534000000    -1.307000000
H     2.089000000    -0.896000000    -2.317000000
H     3.007000000     0.289000000    -1.407000000
H     2.648000000    -1.342000000    -0.663000000
C     0.772000000     1.128000000    -0.212000000
H     1.448000000     1.951000000    -0.431000000
C    -0.446000000     1.390000000     0.373000000
H    -0.691000000     2.423000000     0.606000000
C    -1.286000000     0.308000000     0.773000000
C    -2.627000000     0.496000000     1.459000000
O    -2.751000000     1.555000000     2.070000000
O    -3.371000000    -0.408000000     1.729000000
