17
-98.20839
C    -0.929000000    -1.050000000     0.525000000
H    -1.590000000    -1.882000000     0.755000000
C     0.374000000    -1.288000000    -0.029000000
H     0.674000000    -2.320000000    -0.190000000
C     1.162000000    -0.193000000    -0.406000000
C     2.544000000    -0.460000000    -1.069000000
H     2.484000000    -1.154000000    -1.911000000
H     2.887000000     0.527000000    -1.387000000
H     3.199000000    -0.935000000    -0.337000000
C     0.664000000     1.104000000    -0.243000000
H     1.218000000     1.952000000    -0.636000000
C    -0.622000000     1.350000000     0.278000000
H    -0.968000000     2.370000000     0.425000000
C    -1.415000000     0.260000000     0.676000000
C    -2.809000000     0.515000000     1.121000000
O    -3.308000000     1.645000000     1.155000000
O    -3.558000000    -0.433000000     1.272000000
