17
-98.06877
C    -0.011000000    -1.472000000    -0.238000000
H     0.362000000    -2.456000000    -0.514000000
C     0.277000000    -0.486000000    -1.194000000
H     0.776000000    -0.707000000    -2.134000000
C     0.222000000     0.849000000    -0.837000000
C     0.687000000     1.933000000    -1.807000000
H     1.211000000     2.741000000    -1.293000000
H     1.289000000     1.480000000    -2.598000000
H    -0.208000000     2.315000000    -2.301000000
C    -0.194000000     1.236000000     0.410000000
H    -0.244000000     2.267000000     0.749000000
C    -0.536000000     0.244000000     1.350000000
H    -0.759000000     0.478000000     2.388000000
C    -0.428000000    -1.114000000     1.023000000
C    -0.640000000    -2.179000000     2.094000000
O    -1.167000000    -1.743000000     3.131000000
O    -0.642000000    -3.383000000     1.769000000
