17
-97.24187
C    -0.109000000    -0.757000000    -1.276000000
H    -0.040000000    -1.277000000    -2.228000000
C     0.889000000     0.105000000    -0.927000000
H     1.643000000     0.364000000    -1.666000000
C     0.923000000     0.698000000     0.318000000
C     2.007000000     1.625000000     0.687000000
H     1.789000000     2.201000000     1.589000000
H     3.006000000     1.195000000     0.594000000
H     2.005000000     2.359000000    -0.122000000
C    -0.020000000     0.442000000     1.254000000
H     0.026000000     0.910000000     2.234000000
C    -1.093000000    -0.403000000     0.911000000
H    -1.916000000    -0.538000000     1.608000000
C    -1.171000000    -0.965000000    -0.356000000
C    -2.311000000    -1.828000000    -0.733000000
O    -3.215000000    -2.064000000     0.059000000
O    -2.414000000    -2.070000000    -1.950000000
