17
-98.08579
C    -1.288000000    -0.718000000    -0.239000000
H    -2.086000000    -1.412000000    -0.490000000
C    -0.011000000    -1.249000000    -0.244000000
H     0.113000000    -2.302000000    -0.481000000
C     1.116000000    -0.499000000    -0.076000000
C     2.481000000    -1.051000000    -0.162000000
H     2.353000000    -2.117000000     0.038000000
H     2.824000000    -0.980000000    -1.196000000
H     3.260000000    -0.739000000     0.536000000
C     0.972000000     0.817000000     0.363000000
H     1.836000000     1.422000000     0.626000000
C    -0.263000000     1.419000000     0.346000000
H    -0.343000000     2.458000000     0.656000000
C    -1.426000000     0.660000000    -0.037000000
C    -2.819000000     1.283000000     0.093000000
O    -2.959000000     2.514000000     0.104000000
O    -3.758000000     0.502000000     0.161000000
