17
-97.47151
C    -0.138000000    -0.804000000    -1.352000000
H    -0.187000000    -1.279000000    -2.329000000
C     0.960000000    -0.066000000    -0.891000000
H     1.869000000     0.127000000    -1.456000000
C     1.034000000     0.496000000     0.371000000
C     2.221000000     1.380000000     0.793000000
H     2.881000000     1.727000000    -0.004000000
H     1.857000000     2.321000000     1.210000000
H     2.775000000     0.870000000     1.584000000
C    -0.025000000     0.355000000     1.289000000
H    -0.043000000     0.843000000     2.260000000
C    -1.183000000    -0.290000000     0.809000000
H    -1.994000000    -0.405000000     1.524000000
C    -1.248000000    -0.751000000    -0.518000000
C    -2.598000000    -1.358000000    -0.946000000
O    -3.515000000    -1.482000000    -0.194000000
O    -2.672000000    -1.683000000    -2.143000000
