17
-87.99274
C    -0.396000000    -1.285000000    -0.585000000
H    -0.781000000    -2.111000000    -1.178000000
C    -0.092000000    -0.128000000    -1.312000000
H    -0.143000000    -0.019000000    -2.392000000
C     0.239000000     1.008000000    -0.653000000
C     0.540000000     2.307000000    -1.367000000
H     1.407000000     2.311000000    -2.030000000
H    -0.228000000     2.530000000    -2.111000000
H     0.649000000     3.115000000    -0.640000000
C     0.386000000     0.948000000     0.744000000
H     0.692000000     1.843000000     1.280000000
C     0.121000000    -0.189000000     1.473000000
H     0.359000000    -0.266000000     2.531000000
C    -0.424000000    -1.279000000     0.821000000
C    -0.746000000    -2.556000000     1.583000000
O    -0.416000000    -2.649000000     2.739000000
O    -1.167000000    -3.576000000     1.101000000
