17
-98.67618
C     0.112000000    -1.257000000    -0.757000000
H     0.332000000    -2.136000000    -1.358000000
C     0.762000000    -0.065000000    -1.037000000
H     1.396000000    -0.050000000    -1.920000000
C     0.617000000     1.059000000    -0.207000000
C     1.355000000     2.336000000    -0.514000000
H     1.174000000     2.590000000    -1.561000000
H     1.047000000     3.168000000     0.122000000
H     2.393000000     2.102000000    -0.269000000
C    -0.183000000     0.919000000     0.886000000
H    -0.346000000     1.747000000     1.571000000
C    -0.912000000    -0.232000000     1.082000000
H    -1.594000000    -0.207000000     1.928000000
C    -0.841000000    -1.307000000     0.206000000
C    -1.538000000    -2.566000000     0.544000000
O    -2.360000000    -2.536000000     1.483000000
O    -1.415000000    -3.572000000    -0.193000000
