17
-94.71700
C     0.075000000    -1.278000000    -0.792000000
H     0.194000000    -2.189000000    -1.372000000
C     0.655000000    -0.038000000    -1.167000000
H     1.252000000     0.082000000    -2.068000000
C     0.477000000     1.097000000    -0.378000000
C     1.103000000     2.403000000    -0.688000000
H     1.547000000     2.333000000    -1.683000000
H     0.419000000     3.250000000    -0.607000000
H     1.907000000     2.537000000     0.038000000
C    -0.246000000     1.041000000     0.816000000
H    -0.266000000     1.846000000     1.547000000
C    -0.769000000    -0.210000000     1.244000000
H    -1.162000000    -0.200000000     2.257000000
C    -0.718000000    -1.385000000     0.425000000
C    -1.338000000    -2.743000000     0.726000000
O    -1.998000000    -2.858000000     1.713000000
O    -1.126000000    -3.696000000    -0.009000000
