17
-90.39246
C    -0.221000000    -1.271000000    -0.650000000
H    -0.237000000    -2.146000000    -1.294000000
C     0.499000000    -0.206000000    -1.146000000
H     1.051000000    -0.364000000    -2.069000000
C     0.618000000     0.951000000    -0.384000000
C     1.472000000     2.067000000    -0.944000000
H     2.071000000     2.659000000    -0.249000000
H     2.159000000     1.714000000    -1.716000000
H     0.852000000     2.758000000    -1.519000000
C     0.034000000     1.049000000     0.828000000
H     0.304000000     1.898000000     1.451000000
C    -0.746000000     0.027000000     1.257000000
H    -1.176000000    -0.002000000     2.254000000
C    -0.947000000    -1.149000000     0.550000000
C    -1.641000000    -2.412000000     1.106000000
O    -2.259000000    -2.197000000     2.112000000
O    -1.829000000    -3.382000000     0.415000000
