17
-95.53438
C     0.652000000    -1.219000000    -0.622000000
H     1.182000000    -2.005000000    -1.154000000
C    -0.101000000    -0.228000000    -1.242000000
H    -0.134000000    -0.095000000    -2.321000000
C    -0.706000000     0.804000000    -0.530000000
C    -1.454000000     1.867000000    -1.319000000
H    -1.993000000     1.372000000    -2.129000000
H    -2.246000000     2.291000000    -0.699000000
H    -0.814000000     2.565000000    -1.862000000
C    -0.661000000     0.820000000     0.847000000
H    -1.177000000     1.631000000     1.353000000
C     0.111000000    -0.111000000     1.520000000
H     0.199000000    -0.084000000     2.603000000
C     0.814000000    -1.070000000     0.762000000
C     1.826000000    -1.916000000     1.421000000
O     1.980000000    -1.914000000     2.618000000
O     2.524000000    -2.708000000     0.758000000
