17
-95.03162
C     1.410000000    -0.132000000    -0.294000000
H     2.428000000    -0.072000000    -0.670000000
C     0.442000000     0.588000000    -1.009000000
H     0.794000000     1.121000000    -1.888000000
C    -0.894000000     0.626000000    -0.625000000
C    -1.840000000     1.429000000    -1.462000000
H    -1.750000000     2.448000000    -1.080000000
H    -1.455000000     1.422000000    -2.484000000
H    -2.911000000     1.226000000    -1.404000000
C    -1.235000000    -0.006000000     0.550000000
H    -2.267000000    -0.006000000     0.891000000
C    -0.318000000    -0.782000000     1.225000000
H    -0.691000000    -1.237000000     2.139000000
C     1.055000000    -0.829000000     0.853000000
C     2.117000000    -1.707000000     1.539000000
O     1.823000000    -2.284000000     2.554000000
O     3.286000000    -1.806000000     1.160000000
