17
-93.26131
C     1.406000000     0.032000000    -0.426000000
H     2.407000000     0.291000000    -0.761000000
C     0.310000000     0.069000000    -1.253000000
H     0.377000000     0.031000000    -2.337000000
C    -0.984000000     0.077000000    -0.736000000
C    -2.129000000     0.367000000    -1.653000000
H    -2.805000000     1.127000000    -1.255000000
H    -1.801000000     0.696000000    -2.641000000
H    -2.751000000    -0.530000000    -1.697000000
C    -1.152000000    -0.012000000     0.653000000
H    -2.179000000     0.078000000     0.997000000
C    -0.027000000    -0.230000000     1.455000000
H    -0.235000000    -0.156000000     2.520000000
C     1.233000000    -0.287000000     0.923000000
C     2.444000000    -0.404000000     1.851000000
O     2.315000000    -0.795000000     2.986000000
O     3.577000000    -0.351000000     1.381000000
