17
-95.25489
C     1.338000000    -0.153000000    -0.468000000
H     2.285000000    -0.207000000    -0.999000000
C     0.475000000     0.715000000    -1.012000000
H     0.728000000     1.310000000    -1.886000000
C    -0.801000000     0.808000000    -0.397000000
C    -1.834000000     1.741000000    -1.088000000
H    -1.336000000     2.671000000    -1.370000000
H    -2.163000000     1.161000000    -1.953000000
H    -2.715000000     1.929000000    -0.470000000
C    -1.128000000     0.015000000     0.696000000
H    -2.153000000     0.083000000     1.051000000
C    -0.184000000    -0.797000000     1.289000000
H    -0.465000000    -1.389000000     2.156000000
C     1.099000000    -0.917000000     0.688000000
C     2.074000000    -2.005000000     1.151000000
O     1.774000000    -2.632000000     2.143000000
O     3.006000000    -2.327000000     0.466000000
