17
-91.80526
C     1.287000000    -0.168000000    -0.815000000
H     2.186000000    -0.514000000    -1.318000000
C    -0.025000000    -0.181000000    -1.381000000
H    -0.208000000    -0.415000000    -2.426000000
C    -1.103000000     0.210000000    -0.606000000
C    -2.514000000     0.004000000    -1.020000000
H    -2.495000000    -0.384000000    -2.040000000
H    -3.074000000    -0.660000000    -0.358000000
H    -2.923000000     1.016000000    -1.011000000
C    -0.889000000     0.470000000     0.727000000
H    -1.737000000     0.612000000     1.392000000
C     0.333000000     0.441000000     1.317000000
H     0.402000000     0.554000000     2.395000000
C     1.463000000     0.000000000     0.562000000
C     2.743000000    -0.237000000     1.314000000
O     2.722000000    -0.506000000     2.512000000
O     3.824000000    -0.239000000     0.755000000
