17
-95.79287
C    -1.306000000     0.208000000    -0.715000000
H    -2.218000000     0.351000000    -1.289000000
C    -0.276000000    -0.606000000    -1.158000000
H    -0.372000000    -1.139000000    -2.100000000
C     0.839000000    -0.829000000    -0.358000000
C     1.892000000    -1.807000000    -0.774000000
H     1.906000000    -1.893000000    -1.863000000
H     2.835000000    -1.391000000    -0.412000000
H     1.807000000    -2.828000000    -0.399000000
C     1.063000000    -0.074000000     0.781000000
H     1.935000000    -0.207000000     1.416000000
C     0.162000000     1.015000000     1.073000000
H     0.432000000     1.623000000     1.932000000
C    -1.110000000     1.053000000     0.432000000
C    -2.220000000     1.949000000     0.975000000
O    -2.174000000     2.310000000     2.143000000
O    -3.200000000     2.268000000     0.311000000
