17
-98.44718
C    -0.551000000     0.599000000     1.282000000
H    -1.012000000     1.212000000     2.053000000
C    -1.259000000     0.220000000     0.144000000
H    -2.251000000     0.648000000     0.027000000
C    -0.659000000    -0.446000000    -0.986000000
C    -1.494000000    -0.790000000    -2.177000000
H    -1.198000000    -0.186000000    -3.037000000
H    -1.423000000    -1.850000000    -2.428000000
H    -2.527000000    -0.518000000    -1.949000000
C     0.747000000    -0.648000000    -0.945000000
H     1.216000000    -1.034000000    -1.846000000
C     1.431000000    -0.282000000     0.165000000
H     2.513000000    -0.382000000     0.187000000
C     0.829000000     0.323000000     1.311000000
C     1.629000000     0.840000000     2.456000000
O     2.877000000     0.730000000     2.412000000
O     1.124000000     1.569000000     3.331000000
