17
-87.80682
C    -1.477000000     0.045000000     0.090000000
H    -2.563000000     0.083000000     0.082000000
C    -0.724000000     0.577000000    -0.961000000
H    -1.203000000     1.077000000    -1.799000000
C     0.616000000     0.461000000    -0.946000000
C     1.383000000     1.158000000    -1.935000000
H     1.876000000     2.068000000    -1.586000000
H     2.252000000     0.516000000    -2.094000000
H     0.910000000     1.531000000    -2.846000000
C     1.283000000    -0.156000000     0.103000000
H     2.365000000    -0.257000000     0.067000000
C     0.579000000    -0.616000000     1.239000000
H     1.112000000    -1.042000000     2.085000000
C    -0.832000000    -0.606000000     1.180000000
C    -1.640000000    -1.407000000     2.137000000
O    -1.087000000    -2.041000000     3.021000000
O    -2.851000000    -1.397000000     2.166000000
