17
-96.90636
C    -1.394000000    -0.371000000     0.286000000
H    -2.468000000    -0.496000000     0.399000000
C    -0.842000000    -0.096000000    -0.966000000
H    -1.474000000    -0.146000000    -1.849000000
C     0.458000000     0.342000000    -1.133000000
C     0.945000000     0.814000000    -2.443000000
H     2.011000000     0.609000000    -2.558000000
H     0.406000000     0.311000000    -3.249000000
H     0.822000000     1.894000000    -2.538000000
C     1.310000000     0.260000000    -0.011000000
H     2.321000000     0.648000000    -0.105000000
C     0.838000000    -0.106000000     1.240000000
H     1.549000000    -0.141000000     2.062000000
C    -0.545000000    -0.470000000     1.423000000
C    -1.134000000    -0.956000000     2.784000000
O    -0.454000000    -1.028000000     3.775000000
O    -2.346000000    -1.063000000     2.890000000
