17
-99.46209
C    -1.299000000    -0.283000000     0.729000000
H    -2.263000000    -0.511000000     1.176000000
C    -1.024000000     0.877000000     0.010000000
H    -1.670000000     1.750000000    -0.040000000
C     0.252000000     1.029000000    -0.620000000
C     0.560000000     2.210000000    -1.485000000
H    -0.339000000     2.813000000    -1.626000000
H     1.334000000     2.903000000    -1.149000000
H     0.955000000     1.835000000    -2.432000000
C     1.207000000     0.042000000    -0.419000000
H     2.179000000     0.151000000    -0.892000000
C     0.926000000    -1.131000000     0.275000000
H     1.650000000    -1.938000000     0.352000000
C    -0.307000000    -1.282000000     0.828000000
C    -0.654000000    -2.508000000     1.548000000
O     0.111000000    -3.460000000     1.465000000
O    -1.620000000    -2.505000000     2.281000000
