17
-86.69444
C    -0.873000000    -0.906000000     0.870000000
H    -1.540000000    -1.483000000     1.505000000
C    -1.184000000     0.400000000     0.494000000
H    -2.159000000     0.839000000     0.687000000
C    -0.341000000     1.175000000    -0.327000000
C    -0.617000000     2.516000000    -0.692000000
H    -1.519000000     2.951000000    -0.256000000
H     0.192000000     3.246000000    -0.618000000
H    -0.900000000     2.548000000    -1.746000000
C     0.866000000     0.582000000    -0.810000000
H     1.524000000     1.083000000    -1.516000000
C     1.260000000    -0.721000000    -0.333000000
H     2.101000000    -1.209000000    -0.819000000
C     0.403000000    -1.453000000     0.499000000
C     0.809000000    -2.818000000     0.901000000
O     1.830000000    -3.243000000     0.507000000
O     0.151000000    -3.508000000     1.661000000
