17
-89.65301
C    -0.666000000    -1.167000000     0.514000000
H    -1.351000000    -1.955000000     0.816000000
C    -1.225000000    -0.185000000    -0.305000000
H    -2.295000000    -0.304000000    -0.452000000
C    -0.464000000     0.830000000    -0.786000000
C    -1.115000000     1.932000000    -1.606000000
H    -0.774000000     1.845000000    -2.640000000
H    -2.205000000     1.870000000    -1.608000000
H    -0.854000000     2.867000000    -1.106000000
C     0.894000000     0.787000000    -0.545000000
H     1.554000000     1.520000000    -1.003000000
C     1.421000000    -0.048000000     0.390000000
H     2.466000000     0.028000000     0.678000000
C     0.682000000    -1.069000000     0.962000000
C     1.237000000    -2.087000000     1.920000000
O     2.224000000    -1.898000000     2.546000000
O     0.466000000    -2.964000000     2.217000000
