17
-94.10663
C    -0.858000000    -0.851000000     0.878000000
H    -1.452000000    -1.462000000     1.553000000
C    -1.226000000     0.268000000     0.241000000
H    -2.264000000     0.539000000     0.411000000
C    -0.415000000     1.001000000    -0.596000000
C    -0.841000000     2.347000000    -1.224000000
H    -1.847000000     2.666000000    -0.944000000
H    -0.116000000     3.100000000    -0.905000000
H    -0.797000000     2.268000000    -2.313000000
C     0.888000000     0.538000000    -0.834000000
H     1.578000000     0.958000000    -1.561000000
C     1.339000000    -0.629000000    -0.152000000
H     2.329000000    -0.962000000    -0.451000000
C     0.463000000    -1.325000000     0.714000000
C     0.932000000    -2.509000000     1.540000000
O     2.125000000    -2.700000000     1.573000000
O     0.157000000    -3.243000000     2.067000000
