17
-84.51276
C    -1.379000000    -0.397000000     0.352000000
H    -2.451000000    -0.544000000     0.450000000
C    -1.026000000     0.673000000    -0.471000000
H    -1.774000000     1.247000000    -1.012000000
C     0.328000000     0.918000000    -0.688000000
C     0.752000000     2.126000000    -1.549000000
H     1.650000000     2.571000000    -1.115000000
H     0.906000000     1.889000000    -2.603000000
H    -0.002000000     2.916000000    -1.564000000
C     1.279000000     0.097000000    -0.201000000
H     2.299000000     0.335000000    -0.491000000
C     0.904000000    -0.962000000     0.616000000
H     1.735000000    -1.465000000     1.103000000
C    -0.417000000    -1.233000000     0.889000000
C    -0.862000000    -2.403000000     1.771000000
O    -0.019000000    -3.199000000     2.245000000
O    -1.924000000    -2.565000000     2.266000000
