17
-93.03383
C    -1.075000000    -0.528000000     0.844000000
H    -1.969000000    -0.825000000     1.387000000
C    -1.216000000     0.572000000     0.019000000
H    -2.168000000     1.096000000    -0.012000000
C    -0.114000000     1.012000000    -0.698000000
C    -0.211000000     2.086000000    -1.736000000
H    -0.580000000     1.660000000    -2.671000000
H    -0.977000000     2.823000000    -1.483000000
H     0.761000000     2.573000000    -1.834000000
C     1.149000000     0.449000000    -0.438000000
H     1.948000000     0.797000000    -1.088000000
C     1.253000000    -0.681000000     0.378000000
H     2.254000000    -1.083000000     0.511000000
C     0.144000000    -1.174000000     1.059000000
C     0.209000000    -2.519000000     1.781000000
O     1.300000000    -2.963000000     2.085000000
O    -0.713000000    -3.294000000     1.898000000
