17
-93.50645
C    -0.562000000     1.394000000     0.056000000
H    -0.807000000     2.449000000     0.141000000
C     0.738000000     1.007000000    -0.401000000
H     1.419000000     1.732000000    -0.840000000
C     1.122000000    -0.313000000    -0.426000000
C     2.473000000    -0.641000000    -1.081000000
H     3.214000000    -0.715000000    -0.281000000
H     2.468000000    -1.567000000    -1.660000000
H     2.604000000     0.183000000    -1.785000000
C     0.209000000    -1.292000000     0.023000000
H     0.564000000    -2.318000000     0.091000000
C    -1.072000000    -0.951000000     0.385000000
H    -1.717000000    -1.713000000     0.816000000
C    -1.451000000     0.358000000     0.550000000
C    -2.703000000     0.744000000     1.308000000
O    -3.302000000    -0.194000000     1.877000000
O    -3.192000000     1.830000000     1.223000000
