17
-85.83775
C    -0.988000000     1.148000000    -0.025000000
H    -1.533000000     2.088000000    -0.071000000
C     0.263000000     1.080000000    -0.696000000
H     0.618000000     1.978000000    -1.196000000
C     1.054000000    -0.087000000    -0.649000000
C     2.475000000    -0.046000000    -1.155000000
H     2.503000000     0.002000000    -2.246000000
H     3.106000000     0.777000000    -0.815000000
H     2.995000000    -0.960000000    -0.863000000
C     0.660000000    -1.186000000     0.098000000
H     1.222000000    -2.091000000     0.311000000
C    -0.579000000    -1.117000000     0.709000000
H    -1.027000000    -2.042000000     1.062000000
C    -1.501000000    -0.027000000     0.630000000
C    -2.785000000     0.110000000     1.383000000
O    -3.300000000    -0.820000000     1.960000000
O    -3.184000000     1.198000000     1.571000000
