17
-86.30667
C     0.144000000     1.093000000     0.852000000
H     0.489000000     1.858000000     1.543000000
C     1.095000000     0.639000000    -0.064000000
H     2.090000000     1.064000000     0.041000000
C     0.725000000    -0.321000000    -0.975000000
C     1.820000000    -0.974000000    -1.736000000
H     1.754000000    -2.063000000    -1.699000000
H     1.833000000    -0.614000000    -2.766000000
H     2.752000000    -0.818000000    -1.189000000
C    -0.522000000    -0.941000000    -0.879000000
H    -0.636000000    -1.845000000    -1.471000000
C    -1.434000000    -0.458000000     0.048000000
H    -2.460000000    -0.818000000     0.077000000
C    -1.107000000     0.573000000     0.938000000
C    -1.954000000     1.168000000     2.075000000
O    -3.026000000     0.629000000     2.175000000
O    -1.557000000     1.822000000     3.033000000
