17
-96.00055
C     0.446000000     1.327000000    -0.388000000
H     0.751000000     2.243000000    -0.887000000
C     0.845000000     0.184000000    -1.019000000
H     1.554000000     0.191000000    -1.843000000
C     0.383000000    -1.033000000    -0.531000000
C     0.790000000    -2.348000000    -1.209000000
H    -0.012000000    -3.057000000    -0.993000000
H     0.828000000    -2.120000000    -2.276000000
H     1.777000000    -2.751000000    -0.971000000
C    -0.460000000    -1.009000000     0.604000000
H    -0.872000000    -1.957000000     0.940000000
C    -0.958000000     0.126000000     1.200000000
H    -1.675000000     0.092000000     2.016000000
C    -0.544000000     1.333000000     0.607000000
C    -0.880000000     2.622000000     1.337000000
O    -1.832000000     2.558000000     2.118000000
O    -0.149000000     3.607000000     1.301000000
