17
-99.43481
C     0.560000000     1.404000000     0.198000000
H     1.121000000     2.331000000     0.279000000
C     1.299000000     0.278000000    -0.200000000
H     2.323000000     0.374000000    -0.552000000
C     0.689000000    -0.956000000    -0.305000000
C     1.400000000    -2.201000000    -0.819000000
H     0.827000000    -2.768000000    -1.556000000
H     2.382000000    -1.956000000    -1.231000000
H     1.717000000    -2.891000000    -0.034000000
C    -0.673000000    -1.119000000     0.001000000
H    -1.210000000    -2.055000000    -0.128000000
C    -1.462000000    -0.026000000     0.411000000
H    -2.503000000    -0.095000000     0.716000000
C    -0.795000000     1.255000000     0.508000000
C    -1.643000000     2.492000000     0.902000000
O    -2.854000000     2.306000000     0.974000000
O    -1.178000000     3.629000000     0.843000000
