17
-92.39293
C     1.159000000     0.468000000     0.761000000
H     2.024000000     1.043000000     1.082000000
C     1.118000000     0.124000000    -0.633000000
H     1.904000000     0.477000000    -1.295000000
C    -0.025000000    -0.386000000    -1.218000000
C    -0.126000000    -0.457000000    -2.667000000
H    -1.126000000    -0.749000000    -2.991000000
H     0.245000000     0.420000000    -3.201000000
H     0.496000000    -1.310000000    -2.950000000
C    -1.126000000    -0.633000000    -0.411000000
H    -2.008000000    -1.105000000    -0.836000000
C    -1.067000000    -0.343000000     1.021000000
H    -1.895000000    -0.539000000     1.697000000
C     0.074000000     0.202000000     1.597000000
C     0.124000000     0.717000000     3.025000000
O    -0.883000000     0.704000000     3.649000000
O     1.115000000     1.365000000     3.376000000
