17
-94.68727
C    -1.242000000    -0.559000000    -0.584000000
H    -2.051000000    -1.192000000    -0.939000000
C    -0.007000000    -1.149000000    -0.503000000
H     0.203000000    -2.149000000    -0.875000000
C     1.157000000    -0.465000000    -0.108000000
C     2.510000000    -1.160000000    -0.054000000
H     3.163000000    -0.894000000    -0.888000000
H     3.014000000    -0.845000000     0.862000000
H     2.378000000    -2.243000000    -0.077000000
C     1.012000000     0.837000000     0.431000000
H     1.848000000     1.385000000     0.858000000
C    -0.319000000     1.361000000     0.568000000
H    -0.561000000     2.284000000     1.088000000
C    -1.455000000     0.698000000    -0.042000000
C    -2.823000000     1.256000000     0.062000000
O    -3.109000000     2.231000000     0.700000000
O    -3.711000000     0.601000000    -0.497000000
