17
-94.09088
C     0.810000000     1.038000000     0.540000000
H     1.592000000     1.744000000     0.806000000
C     1.111000000     0.226000000    -0.518000000
H     2.071000000     0.361000000    -1.009000000
C     0.168000000    -0.722000000    -0.972000000
C     0.560000000    -1.571000000    -2.202000000
H    -0.110000000    -2.421000000    -2.349000000
H     0.689000000    -0.991000000    -3.119000000
H     1.565000000    -1.930000000    -1.970000000
C    -0.984000000    -0.913000000    -0.260000000
H    -1.759000000    -1.628000000    -0.522000000
C    -1.231000000    -0.129000000     0.823000000
H    -2.205000000    -0.222000000     1.297000000
C    -0.356000000     0.930000000     1.208000000
C    -0.560000000     1.793000000     2.454000000
O    -1.669000000     1.847000000     2.950000000
O     0.306000000     2.584000000     2.841000000
