17
-91.80556
C     0.418000000     0.789000000     1.124000000
H     0.883000000     1.396000000     1.896000000
C     0.702000000     1.131000000    -0.224000000
H     1.226000000     2.054000000    -0.458000000
C     0.287000000     0.254000000    -1.198000000
C     0.472000000     0.613000000    -2.615000000
H     1.191000000    -0.051000000    -3.101000000
H    -0.474000000     0.618000000    -3.160000000
H     0.971000000     1.583000000    -2.670000000
C    -0.401000000    -0.957000000    -0.870000000
H    -0.903000000    -1.537000000    -1.641000000
C    -0.706000000    -1.187000000     0.505000000
H    -1.297000000    -2.065000000     0.753000000
C    -0.245000000    -0.399000000     1.546000000
C    -0.562000000    -0.681000000     2.989000000
O    -1.110000000    -1.712000000     3.269000000
O    -0.446000000     0.151000000     3.854000000
