17
-85.99835
C     1.365000000    -0.150000000     0.561000000
H     2.332000000    -0.135000000     1.058000000
C     0.886000000     0.872000000    -0.190000000
H     1.526000000     1.720000000    -0.421000000
C    -0.391000000     0.920000000    -0.680000000
C    -0.833000000     2.191000000    -1.388000000
H    -1.543000000     2.013000000    -2.199000000
H    -1.430000000     2.841000000    -0.744000000
H     0.007000000     2.792000000    -1.743000000
C    -1.250000000    -0.104000000    -0.475000000
H    -2.302000000    -0.083000000    -0.747000000
C    -0.845000000    -1.190000000     0.313000000
H    -1.527000000    -1.983000000     0.610000000
C     0.541000000    -1.273000000     0.801000000
C     0.994000000    -2.446000000     1.633000000
O     0.455000000    -3.487000000     1.347000000
O     2.015000000    -2.501000000     2.258000000
