17
-96.31187
C    -1.233000000    -0.636000000    -0.615000000
H    -2.007000000    -1.333000000    -0.927000000
C     0.106000000    -1.069000000    -0.701000000
H     0.393000000    -2.028000000    -1.125000000
C     1.190000000    -0.340000000    -0.227000000
C     2.638000000    -0.870000000    -0.195000000
H     2.895000000    -1.543000000    -1.015000000
H     3.163000000     0.084000000    -0.283000000
H     2.919000000    -1.424000000     0.703000000
C     0.879000000     0.907000000     0.334000000
H     1.695000000     1.533000000     0.686000000
C    -0.469000000     1.322000000     0.544000000
H    -0.604000000     2.263000000     1.071000000
C    -1.552000000     0.501000000     0.128000000
C    -2.958000000     0.791000000     0.443000000
O    -3.272000000     1.928000000     0.921000000
O    -3.785000000    -0.083000000     0.255000000
