17
-81.97987
C     0.916000000    -0.558000000     1.051000000
H     1.537000000    -0.978000000     1.838000000
C     0.778000000     0.787000000     0.804000000
H     1.356000000     1.540000000     1.334000000
C    -0.165000000     1.231000000    -0.155000000
C    -0.418000000     2.651000000    -0.508000000
H    -0.739000000     2.853000000    -1.532000000
H    -1.047000000     3.173000000     0.216000000
H     0.541000000     3.149000000    -0.357000000
C    -0.838000000     0.276000000    -0.912000000
H    -1.458000000     0.593000000    -1.747000000
C    -0.760000000    -1.071000000    -0.632000000
H    -1.304000000    -1.805000000    -1.221000000
C     0.151000000    -1.523000000     0.350000000
C     0.364000000    -3.041000000     0.511000000
O    -0.342000000    -3.901000000     0.099000000
O     1.424000000    -3.368000000     0.864000000
