17
-99.62488
C     1.279000000    -0.495000000     0.630000000
H     2.173000000    -0.676000000     1.221000000
C     0.962000000     0.827000000     0.282000000
H     1.613000000     1.576000000     0.725000000
C    -0.187000000     1.179000000    -0.340000000
C    -0.669000000     2.569000000    -0.482000000
H    -0.229000000     3.235000000     0.263000000
H    -0.428000000     2.876000000    -1.502000000
H    -1.732000000     2.698000000    -0.268000000
C    -1.098000000     0.198000000    -0.717000000
H    -2.060000000     0.497000000    -1.125000000
C    -0.777000000    -1.142000000    -0.466000000
H    -1.475000000    -1.932000000    -0.728000000
C     0.389000000    -1.497000000     0.225000000
C     0.718000000    -2.995000000     0.591000000
O    -0.233000000    -3.747000000     0.470000000
O     1.758000000    -3.178000000     1.216000000
