17
-89.96025
C     1.452000000     0.292000000    -0.017000000
H     2.487000000     0.623000000    -0.050000000
C     0.421000000     1.241000000    -0.177000000
H     0.668000000     2.194000000    -0.638000000
C    -0.920000000     0.843000000    -0.161000000
C    -2.028000000     1.749000000    -0.668000000
H    -1.900000000     2.140000000    -1.680000000
H    -3.010000000     1.276000000    -0.602000000
H    -2.169000000     2.569000000     0.039000000
C    -1.223000000    -0.509000000     0.245000000
H    -2.248000000    -0.844000000     0.380000000
C    -0.157000000    -1.362000000     0.466000000
H    -0.453000000    -2.369000000     0.748000000
C     1.177000000    -1.009000000     0.345000000
C     2.310000000    -1.992000000     0.529000000
O     2.081000000    -3.104000000     0.867000000
O     3.504000000    -1.732000000     0.371000000
