17
-90.90635
C     1.156000000     0.097000000     0.882000000
H     2.018000000     0.311000000     1.508000000
C     0.775000000     0.988000000    -0.113000000
H     1.260000000     1.958000000    -0.048000000
C    -0.301000000     0.812000000    -0.938000000
C    -0.646000000     1.859000000    -1.883000000
H     0.072000000     2.675000000    -1.770000000
H    -0.474000000     1.673000000    -2.945000000
H    -1.715000000     2.071000000    -1.952000000
C    -1.135000000    -0.334000000    -0.747000000
H    -2.102000000    -0.587000000    -1.174000000
C    -0.708000000    -1.247000000     0.260000000
H    -1.227000000    -2.170000000     0.506000000
C     0.405000000    -1.066000000     1.101000000
C     0.754000000    -2.054000000     2.173000000
O     0.292000000    -3.194000000     2.110000000
O     1.577000000    -1.789000000     3.022000000
