17
-94.76719
C     0.890000000     0.426000000     1.031000000
H     1.668000000     0.787000000     1.699000000
C     0.513000000     1.242000000     0.006000000
H     0.787000000     2.293000000    -0.043000000
C    -0.320000000     0.693000000    -0.951000000
C    -0.600000000     1.475000000    -2.223000000
H    -1.478000000     2.076000000    -1.978000000
H     0.134000000     2.251000000    -2.450000000
H    -0.632000000     0.742000000    -3.032000000
C    -0.894000000    -0.587000000    -0.778000000
H    -1.485000000    -1.041000000    -1.569000000
C    -0.555000000    -1.380000000     0.346000000
H    -0.902000000    -2.405000000     0.453000000
C     0.392000000    -0.857000000     1.258000000
C     0.824000000    -1.722000000     2.406000000
O     0.491000000    -2.869000000     2.381000000
O     1.174000000    -1.131000000     3.447000000
