17
-93.96680
C     1.237000000     0.257000000     0.867000000
H     2.078000000     0.577000000     1.476000000
C     0.787000000     1.104000000    -0.198000000
H     1.334000000     2.011000000    -0.442000000
C    -0.358000000     0.783000000    -0.918000000
C    -1.020000000     1.658000000    -1.874000000
H    -2.036000000     1.380000000    -2.159000000
H    -0.958000000     2.679000000    -1.492000000
H    -0.410000000     1.588000000    -2.777000000
C    -1.115000000    -0.280000000    -0.436000000
H    -2.089000000    -0.522000000    -0.854000000
C    -0.635000000    -1.179000000     0.481000000
H    -1.252000000    -2.041000000     0.723000000
C     0.613000000    -0.948000000     1.040000000
C     1.163000000    -2.101000000     1.936000000
O     0.502000000    -3.089000000     1.991000000
O     2.154000000    -1.871000000     2.632000000
