17
-94.38448
C     0.427000000     0.328000000     1.300000000
H     0.932000000     0.736000000     2.172000000
C     0.088000000     1.199000000     0.350000000
H     0.190000000     2.268000000     0.523000000
C    -0.401000000     0.786000000    -0.863000000
C    -0.859000000     1.791000000    -1.883000000
H    -1.102000000     1.320000000    -2.837000000
H    -1.696000000     2.427000000    -1.586000000
H     0.006000000     2.406000000    -2.140000000
C    -0.537000000    -0.604000000    -1.081000000
H    -0.902000000    -0.957000000    -2.042000000
C    -0.171000000    -1.549000000    -0.098000000
H    -0.291000000    -2.617000000    -0.262000000
C     0.438000000    -1.057000000     1.105000000
C     1.066000000    -1.947000000     2.171000000
O     1.423000000    -3.044000000     1.860000000
O     1.386000000    -1.491000000     3.304000000
