17
-92.13101
C     0.769000000     0.485000000     1.202000000
H     1.371000000     0.901000000     2.005000000
C     0.458000000     1.220000000     0.116000000
H     0.744000000     2.261000000     0.245000000
C    -0.249000000     0.733000000    -0.978000000
C    -0.689000000     1.508000000    -2.205000000
H    -1.510000000     2.156000000    -1.892000000
H     0.132000000     2.125000000    -2.576000000
H    -1.017000000     0.814000000    -2.982000000
C    -0.705000000    -0.603000000    -0.907000000
H    -1.410000000    -1.045000000    -1.606000000
C    -0.413000000    -1.365000000     0.182000000
H    -0.801000000    -2.380000000     0.173000000
C     0.379000000    -0.863000000     1.284000000
C     0.896000000    -1.733000000     2.336000000
O     0.669000000    -2.973000000     2.287000000
O     1.377000000    -1.243000000     3.315000000
