17
-97.13648
C     0.889000000     0.375000000     1.211000000
H     1.432000000     0.775000000     2.064000000
C     0.341000000     1.267000000     0.290000000
H     0.520000000     2.331000000     0.420000000
C    -0.483000000     0.824000000    -0.827000000
C    -0.955000000     1.789000000    -1.909000000
H    -0.954000000     2.831000000    -1.581000000
H    -0.203000000     1.861000000    -2.698000000
H    -1.855000000     1.426000000    -2.409000000
C    -0.723000000    -0.537000000    -0.908000000
H    -1.351000000    -0.897000000    -1.719000000
C    -0.226000000    -1.430000000    -0.016000000
H    -0.411000000    -2.497000000    -0.113000000
C     0.578000000    -1.004000000     1.084000000
C     1.071000000    -2.113000000     2.067000000
O     0.636000000    -3.238000000     1.971000000
O     1.694000000    -1.756000000     3.079000000
