17
-89.71834
C     0.854000000     0.204000000     1.266000000
H     1.405000000     0.390000000     2.184000000
C     0.375000000     1.205000000     0.395000000
H     0.494000000     2.255000000     0.650000000
C    -0.320000000     0.905000000    -0.809000000
C    -0.872000000     1.900000000    -1.787000000
H    -0.571000000     2.898000000    -1.463000000
H    -0.511000000     1.749000000    -2.807000000
H    -1.964000000     1.908000000    -1.758000000
C    -0.589000000    -0.380000000    -1.067000000
H    -1.097000000    -0.565000000    -2.010000000
C    -0.157000000    -1.372000000    -0.155000000
H    -0.420000000    -2.415000000    -0.310000000
C     0.513000000    -1.079000000     1.033000000
C     0.936000000    -2.191000000     1.952000000
O     1.262000000    -3.321000000     1.548000000
O     0.656000000    -2.096000000     3.133000000
