17
-96.08326
C    -1.418000000    -0.341000000    -0.307000000
H    -2.419000000    -0.670000000    -0.574000000
C    -0.320000000    -1.027000000    -0.831000000
H    -0.407000000    -1.898000000    -1.476000000
C     0.956000000    -0.595000000    -0.480000000
C     2.219000000    -1.375000000    -0.795000000
H     3.068000000    -0.695000000    -0.889000000
H     2.425000000    -2.077000000     0.015000000
H     2.027000000    -1.893000000    -1.737000000
C     1.188000000     0.578000000     0.270000000
H     2.221000000     0.905000000     0.366000000
C     0.060000000     1.232000000     0.844000000
H     0.160000000     2.205000000     1.317000000
C    -1.278000000     0.717000000     0.639000000
C    -2.492000000     1.408000000     1.146000000
O    -2.373000000     2.446000000     1.777000000
O    -3.614000000     1.082000000     0.722000000
