17
-90.93087
C     0.830000000    -0.060000000     1.232000000
H     1.467000000    -0.086000000     2.112000000
C     0.907000000     0.864000000     0.249000000
H     1.740000000     1.562000000     0.223000000
C     0.146000000     0.779000000    -0.871000000
C     0.432000000     1.584000000    -2.107000000
H    -0.143000000     1.391000000    -3.015000000
H     0.241000000     2.640000000    -1.903000000
H     1.472000000     1.435000000    -2.405000000
C    -0.881000000    -0.141000000    -0.996000000
H    -1.524000000    -0.052000000    -1.868000000
C    -1.031000000    -1.014000000     0.054000000
H    -1.808000000    -1.767000000    -0.044000000
C    -0.163000000    -0.973000000     1.169000000
C    -0.450000000    -1.820000000     2.419000000
O    -1.181000000    -2.829000000     2.257000000
O    -0.062000000    -1.516000000     3.494000000
