17
-93.80351
C     0.406000000     1.217000000     0.672000000
H     0.924000000     2.055000000     1.132000000
C     0.581000000     0.946000000    -0.672000000
H     1.202000000     1.609000000    -1.269000000
C     0.142000000    -0.277000000    -1.200000000
C     0.370000000    -0.514000000    -2.648000000
H     0.960000000    -1.425000000    -2.770000000
H    -0.548000000    -0.694000000    -3.212000000
H     0.906000000     0.309000000    -3.126000000
C    -0.563000000    -1.087000000    -0.410000000
H    -0.930000000    -2.007000000    -0.858000000
C    -0.782000000    -0.875000000     0.977000000
H    -1.311000000    -1.511000000     1.682000000
C    -0.299000000     0.338000000     1.519000000
C    -0.321000000     0.601000000     3.012000000
O    -0.735000000    -0.322000000     3.672000000
O     0.002000000     1.634000000     3.500000000
