17
-87.48856
C    -0.323000000     0.992000000     1.139000000
H    -0.459000000     1.814000000     1.837000000
C    -0.451000000     1.251000000    -0.259000000
H    -0.736000000     2.251000000    -0.574000000
C    -0.001000000     0.293000000    -1.187000000
C     0.021000000     0.596000000    -2.722000000
H     0.112000000    -0.270000000    -3.380000000
H    -0.907000000     1.122000000    -2.957000000
H     0.906000000     1.211000000    -2.898000000
C     0.147000000    -1.015000000    -0.745000000
H     0.282000000    -1.855000000    -1.421000000
C     0.278000000    -1.251000000     0.578000000
H     0.471000000    -2.269000000     0.904000000
C     0.070000000    -0.329000000     1.560000000
C     0.192000000    -0.716000000     2.974000000
O     0.504000000    -1.876000000     3.312000000
O    -0.099000000     0.043000000     3.833000000
