17
-95.02781
C     0.099000000     0.521000000     1.406000000
H     0.042000000     1.063000000     2.347000000
C     0.523000000     1.154000000     0.258000000
H     0.967000000     2.142000000     0.343000000
C     0.449000000     0.516000000    -0.998000000
C     0.928000000     1.235000000    -2.251000000
H     0.268000000     2.100000000    -2.342000000
H     1.967000000     1.571000000    -2.234000000
H     0.824000000     0.780000000    -3.239000000
C    -0.033000000    -0.787000000    -1.119000000
H    -0.233000000    -1.308000000    -2.052000000
C    -0.486000000    -1.405000000     0.046000000
H    -0.920000000    -2.400000000     0.104000000
C    -0.410000000    -0.749000000     1.340000000
C    -1.100000000    -1.387000000     2.490000000
O    -2.187000000    -1.940000000     2.302000000
O    -0.706000000    -1.099000000     3.591000000
