17
-91.26606
C    -0.062000000    -1.365000000     0.571000000
H     0.071000000    -2.332000000     1.050000000
C     1.026000000    -0.842000000    -0.207000000
H     1.857000000    -1.513000000    -0.409000000
C     0.933000000     0.425000000    -0.685000000
C     2.154000000     1.014000000    -1.332000000
H     2.751000000     1.337000000    -0.477000000
H     2.649000000     0.348000000    -2.042000000
H     1.840000000     1.912000000    -1.870000000
C    -0.240000000     1.191000000    -0.543000000
H    -0.382000000     2.140000000    -1.053000000
C    -1.245000000     0.706000000     0.321000000
H    -2.113000000     1.330000000     0.520000000
C    -1.139000000    -0.605000000     0.805000000
C    -2.365000000    -1.100000000     1.587000000
O    -3.247000000    -0.369000000     1.870000000
O    -2.492000000    -2.281000000     1.886000000
