17
-91.85021
C     0.463000000    -1.313000000     0.318000000
H     0.874000000    -2.279000000     0.599000000
C     0.658000000    -0.637000000    -0.873000000
H     1.256000000    -1.155000000    -1.618000000
C     0.054000000     0.530000000    -1.094000000
C     0.372000000     1.216000000    -2.402000000
H    -0.090000000     2.206000000    -2.431000000
H     1.442000000     1.376000000    -2.553000000
H     0.113000000     0.596000000    -3.262000000
C    -0.709000000     1.160000000    -0.088000000
H    -1.154000000     2.119000000    -0.342000000
C    -0.750000000     0.601000000     1.197000000
H    -1.286000000     1.028000000     2.041000000
C    -0.155000000    -0.687000000     1.403000000
C    -0.289000000    -1.399000000     2.696000000
O    -0.641000000    -0.773000000     3.660000000
O    -0.164000000    -2.588000000     2.750000000
