17
-90.06791
C     1.018000000    -1.044000000    -0.012000000
H     1.821000000    -1.776000000    -0.046000000
C     0.820000000    -0.136000000    -0.943000000
H     1.418000000    -0.170000000    -1.851000000
C    -0.142000000     0.904000000    -0.854000000
C    -0.379000000     1.849000000    -2.024000000
H     0.612000000     2.120000000    -2.393000000
H    -0.825000000     1.300000000    -2.856000000
H    -1.024000000     2.644000000    -1.645000000
C    -1.054000000     0.839000000     0.222000000
H    -1.933000000     1.459000000     0.382000000
C    -0.839000000    -0.091000000     1.215000000
H    -1.404000000    -0.026000000     2.141000000
C     0.229000000    -1.025000000     1.149000000
C     0.493000000    -2.046000000     2.216000000
O    -0.248000000    -2.017000000     3.146000000
O     1.441000000    -2.790000000     2.157000000
