17
-92.98302
C     0.521000000    -1.358000000    -0.452000000
H     0.997000000    -2.284000000    -0.764000000
C     0.951000000    -0.081000000    -0.992000000
H     1.795000000    -0.144000000    -1.675000000
C     0.335000000     1.092000000    -0.528000000
C     0.839000000     2.457000000    -0.996000000
H     0.014000000     3.090000000    -1.328000000
H     1.354000000     2.954000000    -0.171000000
H     1.484000000     2.350000000    -1.870000000
C    -0.668000000     0.973000000     0.429000000
H    -1.063000000     1.913000000     0.805000000
C    -1.190000000    -0.214000000     0.917000000
H    -1.971000000    -0.235000000     1.672000000
C    -0.532000000    -1.408000000     0.518000000
C    -0.912000000    -2.704000000     1.242000000
O    -1.719000000    -2.715000000     2.125000000
O    -0.234000000    -3.681000000     1.070000000
