17
-89.11567
C    -0.130000000    -1.152000000     0.978000000
H    -0.348000000    -2.062000000     1.531000000
C     0.054000000    -1.276000000    -0.357000000
H     0.012000000    -2.301000000    -0.717000000
C     0.251000000    -0.138000000    -1.169000000
C     0.483000000    -0.233000000    -2.704000000
H     1.182000000    -1.045000000    -2.913000000
H    -0.489000000    -0.530000000    -3.102000000
H     0.896000000     0.655000000    -3.187000000
C     0.245000000     1.109000000    -0.620000000
H     0.499000000     2.017000000    -1.160000000
C    -0.018000000     1.296000000     0.723000000
H    -0.143000000     2.284000000     1.159000000
C    -0.216000000     0.154000000     1.533000000
C    -0.655000000     0.366000000     2.995000000
O    -0.645000000     1.457000000     3.440000000
O    -0.972000000    -0.603000000     3.572000000
