17
-95.03260
C    -0.127000000    -0.224000000     1.467000000
H    -0.136000000    -0.384000000     2.542000000
C     0.671000000    -1.019000000     0.636000000
H     1.251000000    -1.838000000     1.054000000
C     0.634000000    -0.816000000    -0.773000000
C     1.420000000    -1.617000000    -1.743000000
H     1.348000000    -2.686000000    -1.528000000
H     1.123000000    -1.331000000    -2.754000000
H     2.458000000    -1.294000000    -1.642000000
C    -0.117000000     0.275000000    -1.216000000
H    -0.111000000     0.549000000    -2.268000000
C    -0.806000000     1.120000000    -0.389000000
H    -1.386000000     1.950000000    -0.786000000
C    -0.860000000     0.881000000     0.962000000
C    -1.614000000     1.854000000     1.917000000
O    -2.122000000     2.871000000     1.444000000
O    -1.630000000     1.701000000     3.079000000
