17
-94.88519
C     0.380000000    -0.748000000     1.237000000
H     0.783000000    -1.246000000     2.115000000
C     1.134000000    -0.653000000     0.089000000
H     2.118000000    -1.109000000     0.014000000
C     0.662000000     0.064000000    -1.020000000
C     1.507000000     0.117000000    -2.320000000
H     1.414000000    -0.790000000    -2.921000000
H     1.243000000     0.916000000    -3.017000000
H     2.546000000     0.345000000    -2.073000000
C    -0.591000000     0.676000000    -0.950000000
H    -0.983000000     1.153000000    -1.844000000
C    -1.395000000     0.578000000     0.216000000
H    -2.318000000     1.152000000     0.244000000
C    -0.903000000    -0.175000000     1.351000000
C    -1.641000000    -0.143000000     2.626000000
O    -2.676000000     0.498000000     2.599000000
O    -1.285000000    -0.643000000     3.658000000
