17
-98.13225
C     0.096000000    -1.097000000     0.993000000
H     0.311000000    -2.000000000     1.560000000
C     0.648000000    -1.075000000    -0.340000000
H     1.085000000    -1.976000000    -0.763000000
C     0.467000000     0.008000000    -1.177000000
C     0.996000000     0.022000000    -2.572000000
H     1.568000000    -0.890000000    -2.759000000
H     0.199000000     0.138000000    -3.309000000
H     1.719000000     0.841000000    -2.568000000
C    -0.209000000     1.115000000    -0.626000000
H    -0.429000000     2.020000000    -1.186000000
C    -0.674000000     1.137000000     0.641000000
H    -1.097000000     2.052000000     1.048000000
C    -0.490000000     0.009000000     1.509000000
C    -1.189000000    -0.079000000     2.845000000
O    -2.073000000     0.735000000     3.032000000
O    -0.930000000    -0.958000000     3.665000000
