17
-96.99707
C    -1.063000000    -0.238000000    -0.991000000
H    -1.781000000    -0.530000000    -1.753000000
C     0.077000000    -1.038000000    -0.816000000
H     0.264000000    -1.872000000    -1.487000000
C     1.104000000    -0.600000000     0.077000000
C     2.330000000    -1.456000000     0.273000000
H     3.107000000    -0.912000000     0.814000000
H     2.054000000    -2.373000000     0.798000000
H     2.804000000    -1.730000000    -0.672000000
C     0.800000000     0.487000000     0.855000000
H     1.645000000     0.749000000     1.488000000
C    -0.422000000     1.174000000     0.865000000
H    -0.486000000     2.038000000     1.522000000
C    -1.360000000     0.853000000    -0.163000000
C    -2.663000000     1.595000000    -0.259000000
O    -2.697000000     2.703000000     0.263000000
O    -3.717000000     1.145000000    -0.818000000
