17
-96.70952
C     1.068000000    -0.534000000     0.816000000
H     2.012000000    -0.790000000     1.291000000
C     1.146000000    -0.060000000    -0.493000000
H     2.080000000     0.072000000    -1.032000000
C     0.050000000     0.388000000    -1.169000000
C     0.240000000     0.882000000    -2.556000000
H    -0.417000000     1.731000000    -2.758000000
H     1.262000000     1.257000000    -2.639000000
H     0.039000000     0.158000000    -3.348000000
C    -1.171000000     0.336000000    -0.498000000
H    -2.048000000     0.705000000    -1.022000000
C    -1.240000000    -0.142000000     0.770000000
H    -2.222000000    -0.012000000     1.217000000
C    -0.149000000    -0.567000000     1.513000000
C    -0.222000000    -1.035000000     2.927000000
O    -1.162000000    -0.723000000     3.622000000
O     0.728000000    -1.668000000     3.364000000
