17
-89.47209
C     1.008000000    -0.572000000     0.755000000
H     1.830000000    -1.090000000     1.242000000
C     1.186000000    -0.215000000    -0.536000000
H     2.072000000    -0.439000000    -1.124000000
C     0.092000000     0.328000000    -1.157000000
C     0.210000000     0.587000000    -2.619000000
H    -0.759000000     0.877000000    -3.031000000
H     1.043000000     1.263000000    -2.822000000
H     0.459000000    -0.352000000    -3.117000000
C    -1.134000000     0.571000000    -0.445000000
H    -2.012000000     0.792000000    -1.047000000
C    -1.263000000     0.163000000     0.833000000
H    -2.249000000     0.182000000     1.291000000
C    -0.134000000    -0.315000000     1.523000000
C    -0.106000000    -0.557000000     3.011000000
O    -1.073000000    -0.195000000     3.684000000
O     0.830000000    -1.029000000     3.562000000
