17
-93.22434
C     0.721000000    -1.150000000     0.480000000
H     1.389000000    -1.986000000     0.668000000
C     0.959000000    -0.449000000    -0.704000000
H     1.801000000    -0.797000000    -1.298000000
C     0.121000000     0.564000000    -1.106000000
C     0.214000000     1.185000000    -2.442000000
H     0.066000000     0.451000000    -3.237000000
H    -0.415000000     2.078000000    -2.473000000
H     1.200000000     1.606000000    -2.651000000
C    -0.877000000     0.955000000    -0.266000000
H    -1.574000000     1.740000000    -0.552000000
C    -1.076000000     0.380000000     1.016000000
H    -1.792000000     0.793000000     1.722000000
C    -0.192000000    -0.724000000     1.412000000
C    -0.157000000    -1.364000000     2.814000000
O    -0.893000000    -0.946000000     3.684000000
O     0.507000000    -2.343000000     2.939000000
