17
-94.70761
C     0.975000000    -0.635000000     0.955000000
H     1.806000000    -1.108000000     1.471000000
C     1.136000000    -0.453000000    -0.445000000
H     2.101000000    -0.588000000    -0.926000000
C     0.175000000     0.187000000    -1.210000000
C     0.366000000     0.539000000    -2.630000000
H     1.123000000    -0.053000000    -3.148000000
H    -0.598000000     0.523000000    -3.144000000
H     0.676000000     1.586000000    -2.665000000
C    -1.001000000     0.596000000    -0.591000000
H    -1.695000000     1.193000000    -1.178000000
C    -1.213000000     0.377000000     0.751000000
H    -2.135000000     0.752000000     1.187000000
C    -0.248000000    -0.309000000     1.500000000
C    -0.430000000    -0.750000000     2.955000000
O    -1.540000000    -0.769000000     3.478000000
O     0.499000000    -1.085000000     3.640000000
