17
-96.45003
C     1.097000000    -0.873000000     0.471000000
H     1.915000000    -1.521000000     0.772000000
C     1.035000000    -0.231000000    -0.733000000
H     1.833000000    -0.263000000    -1.470000000
C    -0.013000000     0.605000000    -1.034000000
C    -0.173000000     1.220000000    -2.397000000
H     0.747000000     1.503000000    -2.912000000
H    -0.650000000     0.569000000    -3.132000000
H    -0.828000000     2.094000000    -2.360000000
C    -1.010000000     0.806000000    -0.132000000
H    -1.765000000     1.534000000    -0.415000000
C    -1.043000000     0.078000000     1.073000000
H    -1.754000000     0.213000000     1.884000000
C     0.066000000    -0.755000000     1.349000000
C     0.174000000    -1.414000000     2.688000000
O    -0.879000000    -1.627000000     3.274000000
O     1.241000000    -1.941000000     3.069000000
