17
-94.53389
C     0.955000000    -0.300000000     1.094000000
H     1.713000000    -0.650000000     1.791000000
C     1.071000000    -0.687000000    -0.292000000
H     1.942000000    -1.205000000    -0.686000000
C     0.023000000    -0.443000000    -1.169000000
C     0.285000000    -0.788000000    -2.616000000
H     1.356000000    -0.622000000    -2.749000000
H    -0.060000000    -1.805000000    -2.813000000
H    -0.278000000    -0.176000000    -3.323000000
C    -1.093000000     0.306000000    -0.746000000
H    -1.950000000     0.485000000    -1.390000000
C    -1.070000000     0.821000000     0.574000000
H    -1.951000000     1.370000000     0.895000000
C    -0.120000000     0.487000000     1.532000000
C    -0.256000000     0.917000000     2.947000000
O    -0.955000000     1.892000000     3.146000000
O     0.380000000     0.406000000     3.813000000
