17
-96.37999
C     0.866000000    -0.334000000     1.141000000
H     1.563000000    -0.483000000     1.962000000
C     1.222000000     0.444000000     0.039000000
H     2.255000000     0.771000000    -0.050000000
C     0.353000000     0.688000000    -1.007000000
C     0.809000000     1.337000000    -2.225000000
H     1.452000000     0.622000000    -2.743000000
H    -0.040000000     1.545000000    -2.879000000
H     1.311000000     2.244000000    -1.882000000
C    -0.934000000     0.160000000    -0.888000000
H    -1.631000000     0.121000000    -1.721000000
C    -1.359000000    -0.464000000     0.259000000
H    -2.396000000    -0.785000000     0.320000000
C    -0.475000000    -0.821000000     1.265000000
C    -0.896000000    -1.528000000     2.475000000
O    -2.084000000    -1.521000000     2.762000000
O    -0.017000000    -2.001000000     3.164000000
