17
-82.71049
C     0.413000000    -0.026000000     1.437000000
H     0.647000000     0.233000000     2.466000000
C     0.683000000     0.946000000     0.489000000
H     1.044000000     1.925000000     0.793000000
C     0.277000000     0.833000000    -0.873000000
C     0.351000000     1.994000000    -1.855000000
H     1.197000000     2.023000000    -2.544000000
H    -0.594000000     1.962000000    -2.401000000
H     0.339000000     2.947000000    -1.322000000
C    -0.445000000    -0.252000000    -1.212000000
H    -0.726000000    -0.365000000    -2.256000000
C    -0.536000000    -1.277000000    -0.297000000
H    -1.114000000    -2.104000000    -0.700000000
C    -0.198000000    -1.170000000     1.043000000
C    -0.479000000    -2.239000000     2.126000000
O    -0.773000000    -3.355000000     1.822000000
O    -0.093000000    -2.077000000     3.277000000
