17
-83.55556
C    -0.783000000     0.019000000    -1.236000000
H    -1.316000000    -0.031000000    -2.182000000
C     0.547000000    -0.449000000    -1.113000000
H     1.139000000    -0.725000000    -1.982000000
C     1.195000000    -0.301000000     0.145000000
C     2.549000000    -0.803000000     0.247000000
H     2.687000000    -1.150000000     1.274000000
H     2.692000000    -1.622000000    -0.461000000
H     3.191000000     0.026000000    -0.058000000
C     0.565000000     0.168000000     1.238000000
H     1.013000000     0.199000000     2.227000000
C    -0.801000000     0.527000000     1.093000000
H    -1.336000000     0.845000000     1.984000000
C    -1.440000000     0.602000000    -0.160000000
C    -2.870000000     0.851000000    -0.313000000
O    -3.611000000     1.066000000     0.657000000
O    -3.422000000     0.772000000    -1.352000000
