17
-95.20947
C     0.850000000    -0.600000000     1.078000000
H     1.505000000    -1.064000000     1.811000000
C     1.318000000     0.191000000     0.012000000
H     2.354000000     0.517000000    -0.036000000
C     0.432000000     0.720000000    -0.909000000
C     0.896000000     1.459000000    -2.117000000
H     1.813000000     0.999000000    -2.492000000
H     0.140000000     1.326000000    -2.893000000
H     1.063000000     2.489000000    -1.794000000
C    -0.923000000     0.440000000    -0.855000000
H    -1.555000000     0.841000000    -1.643000000
C    -1.383000000    -0.341000000     0.240000000
H    -2.417000000    -0.678000000     0.228000000
C    -0.505000000    -0.871000000     1.172000000
C    -1.024000000    -1.666000000     2.341000000
O    -2.261000000    -1.800000000     2.568000000
O    -0.297000000    -1.966000000     3.289000000
