17
-98.95765
C     0.421000000     0.075000000     1.454000000
H     0.643000000     0.225000000     2.507000000
C     0.837000000     0.953000000     0.437000000
H     1.485000000     1.788000000     0.694000000
C     0.413000000     0.790000000    -0.868000000
C     0.799000000     1.758000000    -1.960000000
H     0.053000000     2.556000000    -1.993000000
H     1.785000000     2.179000000    -1.754000000
H     0.697000000     1.255000000    -2.924000000
C    -0.478000000    -0.226000000    -1.195000000
H    -0.746000000    -0.371000000    -2.239000000
C    -0.828000000    -1.131000000    -0.180000000
H    -1.532000000    -1.924000000    -0.416000000
C    -0.409000000    -0.969000000     1.103000000
C    -0.879000000    -2.045000000     2.141000000
O    -1.578000000    -3.019000000     1.820000000
O    -0.681000000    -1.900000000     3.375000000
