17
-95.94965
C    -1.030000000     0.630000000     0.925000000
H    -1.718000000     1.150000000     1.586000000
C    -0.153000000     1.316000000     0.126000000
H    -0.263000000     2.397000000     0.098000000
C     0.754000000     0.635000000    -0.719000000
C     1.609000000     1.370000000    -1.720000000
H     2.635000000     1.400000000    -1.345000000
H     1.517000000     1.001000000    -2.743000000
H     1.266000000     2.406000000    -1.762000000
C     0.752000000    -0.767000000    -0.737000000
H     1.311000000    -1.301000000    -1.502000000
C    -0.059000000    -1.474000000     0.082000000
H    -0.074000000    -2.554000000    -0.043000000
C    -0.835000000    -0.766000000     1.060000000
C    -1.694000000    -1.592000000     1.969000000
O    -1.667000000    -2.808000000     1.881000000
O    -2.344000000    -1.040000000     2.843000000
