17
-89.81476
C     0.343000000    -0.123000000     1.427000000
H     0.840000000    -0.200000000     2.391000000
C     1.020000000     0.581000000     0.494000000
H     1.912000000     1.116000000     0.808000000
C     0.576000000     0.730000000    -0.768000000
C     1.312000000     1.521000000    -1.880000000
H     0.622000000     2.244000000    -2.320000000
H     2.088000000     2.135000000    -1.418000000
H     1.770000000     0.967000000    -2.702000000
C    -0.546000000     0.008000000    -1.096000000
H    -0.848000000     0.040000000    -2.140000000
C    -1.288000000    -0.717000000    -0.230000000
H    -2.092000000    -1.338000000    -0.616000000
C    -0.826000000    -0.868000000     1.087000000
C    -1.417000000    -1.835000000     2.030000000
O    -2.431000000    -2.439000000     1.715000000
O    -1.041000000    -1.827000000     3.225000000
