17
-89.28682
C    -1.324000000     0.454000000     0.427000000
H    -2.263000000     0.942000000     0.676000000
C    -0.251000000     1.253000000     0.048000000
H    -0.383000000     2.332000000     0.047000000
C     0.882000000     0.717000000    -0.400000000
C     1.910000000     1.628000000    -0.865000000
H     2.099000000     2.455000000    -0.177000000
H     2.865000000     1.121000000    -1.013000000
H     1.629000000     1.977000000    -1.861000000
C     1.065000000    -0.658000000    -0.444000000
H     2.019000000    -1.042000000    -0.797000000
C     0.094000000    -1.509000000     0.085000000
H     0.348000000    -2.565000000     0.099000000
C    -1.140000000    -0.969000000     0.497000000
C    -2.246000000    -1.854000000     1.020000000
O    -2.054000000    -2.986000000     1.286000000
O    -3.257000000    -1.293000000     1.380000000
