17
-91.78661
C     0.195000000    -0.907000000     1.177000000
H     0.567000000    -1.632000000     1.897000000
C     1.155000000    -0.512000000     0.257000000
H     2.187000000    -0.727000000     0.525000000
C     0.840000000     0.262000000    -0.817000000
C     1.879000000     0.663000000    -1.817000000
H     1.432000000     0.764000000    -2.808000000
H     2.307000000     1.621000000    -1.516000000
H     2.628000000    -0.130000000    -1.779000000
C    -0.445000000     0.768000000    -0.924000000
H    -0.602000000     1.373000000    -1.813000000
C    -1.474000000     0.453000000    -0.042000000
H    -2.421000000     0.914000000    -0.311000000
C    -1.161000000    -0.469000000     0.989000000
C    -2.117000000    -0.795000000     2.032000000
O    -3.275000000    -0.424000000     1.860000000
O    -1.687000000    -1.230000000     3.095000000
