17
-97.32998
C    -0.854000000     0.777000000     0.876000000
H    -1.417000000     1.484000000     1.480000000
C    -0.108000000     1.294000000    -0.171000000
H    -0.198000000     2.363000000    -0.347000000
C     0.747000000     0.429000000    -0.865000000
C     1.528000000     1.063000000    -2.056000000
H     2.527000000     0.625000000    -2.104000000
H     1.146000000     0.689000000    -3.008000000
H     1.618000000     2.146000000    -1.954000000
C     0.792000000    -0.920000000    -0.571000000
H     1.531000000    -1.476000000    -1.142000000
C    -0.164000000    -1.434000000     0.372000000
H    -0.185000000    -2.490000000     0.631000000
C    -0.908000000    -0.571000000     1.146000000
C    -1.830000000    -1.164000000     2.246000000
O    -1.639000000    -2.348000000     2.523000000
O    -2.581000000    -0.463000000     2.947000000
