17
-88.84745
C    -1.242000000     0.042000000     0.796000000
H    -2.186000000     0.050000000     1.335000000
C    -0.897000000     1.011000000    -0.144000000
H    -1.537000000     1.866000000    -0.345000000
C     0.232000000     0.778000000    -0.902000000
C     0.568000000     1.667000000    -2.068000000
H     1.645000000     1.829000000    -1.999000000
H     0.286000000     1.152000000    -2.989000000
H     0.049000000     2.618000000    -1.929000000
C     1.047000000    -0.286000000    -0.654000000
H     1.915000000    -0.447000000    -1.288000000
C     0.763000000    -1.100000000     0.365000000
H     1.570000000    -1.808000000     0.537000000
C    -0.386000000    -0.996000000     1.160000000
C    -0.566000000    -1.879000000     2.345000000
O     0.317000000    -2.620000000     2.752000000
O    -1.582000000    -1.877000000     3.021000000
