17
-90.20217
C    -0.415000000     0.492000000     1.375000000
H    -0.779000000     0.925000000     2.303000000
C    -0.137000000     1.315000000     0.244000000
H    -0.191000000     2.395000000     0.351000000
C     0.332000000     0.738000000    -0.959000000
C     0.453000000     1.509000000    -2.210000000
H    -0.342000000     2.254000000    -2.142000000
H     1.376000000     2.078000000    -2.077000000
H     0.611000000     1.076000000    -3.200000000
C     0.443000000    -0.639000000    -1.045000000
H     0.682000000    -1.043000000    -2.026000000
C     0.132000000    -1.479000000     0.028000000
H     0.290000000    -2.542000000    -0.130000000
C    -0.332000000    -0.896000000     1.250000000
C    -0.701000000    -1.811000000     2.386000000
O    -0.195000000    -2.922000000     2.394000000
O    -1.222000000    -1.451000000     3.451000000
