17
-96.67958
C    -1.353000000     0.319000000     0.717000000
H    -2.279000000     0.687000000     1.150000000
C    -0.681000000     1.102000000    -0.233000000
H    -1.153000000     1.985000000    -0.655000000
C     0.553000000     0.774000000    -0.824000000
C     1.176000000     1.637000000    -1.883000000
H     2.212000000     1.325000000    -2.036000000
H     0.546000000     1.619000000    -2.774000000
H     1.209000000     2.679000000    -1.558000000
C     1.168000000    -0.452000000    -0.498000000
H     2.056000000    -0.884000000    -0.952000000
C     0.564000000    -1.158000000     0.545000000
H     1.052000000    -2.102000000     0.773000000
C    -0.697000000    -0.897000000     1.092000000
C    -1.305000000    -1.904000000     2.138000000
O    -0.598000000    -2.863000000     2.472000000
O    -2.463000000    -1.863000000     2.522000000
