17
-93.88240
C    -1.230000000     0.289000000     0.570000000
H    -2.149000000     0.676000000     1.004000000
C    -0.720000000     1.009000000    -0.450000000
H    -1.304000000     1.834000000    -0.849000000
C     0.520000000     0.590000000    -0.961000000
C     1.059000000     1.240000000    -2.161000000
H     2.139000000     1.086000000    -2.188000000
H     0.548000000     0.948000000    -3.080000000
H     0.938000000     2.316000000    -2.014000000
C     1.149000000    -0.524000000    -0.393000000
H     2.107000000    -0.892000000    -0.752000000
C     0.562000000    -1.169000000     0.639000000
H     1.067000000    -2.022000000     1.085000000
C    -0.599000000    -0.773000000     1.212000000
C    -1.192000000    -1.351000000     2.437000000
O    -0.465000000    -1.929000000     3.232000000
O    -2.437000000    -1.333000000     2.670000000
