17
-97.21105
C    -0.735000000     0.295000000     1.216000000
H    -1.338000000     0.689000000     2.030000000
C    -0.633000000     1.156000000     0.179000000
H    -1.106000000     2.135000000     0.180000000
C     0.099000000     0.764000000    -0.940000000
C     0.218000000     1.629000000    -2.117000000
H    -0.262000000     2.609000000    -2.077000000
H     1.279000000     1.835000000    -2.266000000
H    -0.125000000     1.134000000    -3.028000000
C     0.722000000    -0.477000000    -0.966000000
H     1.227000000    -0.766000000    -1.884000000
C     0.608000000    -1.361000000     0.172000000
H     1.107000000    -2.314000000     0.018000000
C    -0.217000000    -1.006000000     1.253000000
C    -0.276000000    -1.875000000     2.435000000
O     0.469000000    -2.840000000     2.439000000
O    -1.043000000    -1.601000000     3.362000000
