17
-91.01358
C    -0.615000000    -0.736000000     1.098000000
H    -1.033000000    -1.191000000     1.992000000
C    -1.151000000     0.428000000     0.549000000
H    -2.083000000     0.920000000     0.814000000
C    -0.494000000     1.004000000    -0.615000000
C    -1.064000000     2.281000000    -1.154000000
H    -2.111000000     2.387000000    -0.864000000
H    -0.524000000     3.122000000    -0.714000000
H    -1.082000000     2.320000000    -2.245000000
C     0.699000000     0.430000000    -1.058000000
H     1.179000000     0.728000000    -1.987000000
C     1.268000000    -0.656000000    -0.382000000
H     2.214000000    -1.074000000    -0.717000000
C     0.638000000    -1.262000000     0.721000000
C     1.265000000    -2.500000000     1.402000000
O     2.342000000    -3.011000000     1.088000000
O     0.554000000    -3.191000000     2.069000000
