17
-91.30718
C    -0.848000000    -0.449000000    -1.135000000
H    -1.502000000    -0.697000000    -1.968000000
C     0.529000000    -0.176000000    -1.272000000
H     1.086000000    -0.238000000    -2.204000000
C     1.233000000     0.246000000    -0.114000000
C     2.663000000     0.529000000    -0.167000000
H     3.189000000    -0.237000000     0.407000000
H     3.052000000     0.495000000    -1.187000000
H     2.773000000     1.547000000     0.211000000
C     0.569000000     0.287000000     1.096000000
H     1.188000000     0.433000000     1.977000000
C    -0.788000000     0.105000000     1.246000000
H    -1.306000000     0.220000000     2.194000000
C    -1.567000000    -0.157000000     0.078000000
C    -3.014000000    -0.517000000     0.223000000
O    -3.519000000    -0.665000000     1.333000000
O    -3.742000000    -0.719000000    -0.713000000
