17
-93.64962
C    -0.784000000    -0.773000000     1.017000000
H    -1.268000000    -1.183000000     1.900000000
C    -0.949000000     0.560000000     0.680000000
H    -1.599000000     1.200000000     1.271000000
C    -0.137000000     1.219000000    -0.228000000
C    -0.299000000     2.658000000    -0.542000000
H    -1.173000000     2.934000000    -1.135000000
H    -0.290000000     3.232000000     0.387000000
H     0.567000000     3.028000000    -1.095000000
C     0.785000000     0.413000000    -0.891000000
H     1.393000000     0.916000000    -1.637000000
C     0.994000000    -0.932000000    -0.630000000
H     1.815000000    -1.458000000    -1.110000000
C     0.160000000    -1.552000000     0.261000000
C     0.191000000    -3.056000000     0.453000000
O     0.939000000    -3.759000000    -0.171000000
O    -0.340000000    -3.455000000     1.469000000
