17
-97.37984
C    -0.925000000    -1.116000000     0.364000000
H    -1.625000000    -1.946000000     0.414000000
C    -1.055000000    -0.242000000    -0.747000000
H    -1.868000000    -0.535000000    -1.407000000
C    -0.145000000     0.773000000    -1.003000000
C    -0.331000000     1.570000000    -2.211000000
H     0.026000000     2.586000000    -2.034000000
H     0.240000000     1.127000000    -3.030000000
H    -1.360000000     1.692000000    -2.556000000
C     0.817000000     1.008000000    -0.025000000
H     1.521000000     1.832000000    -0.111000000
C     0.965000000     0.252000000     1.152000000
H     1.777000000     0.433000000     1.851000000
C     0.182000000    -0.903000000     1.274000000
C     0.523000000    -1.902000000     2.380000000
O     1.294000000    -1.626000000     3.302000000
O    -0.044000000    -2.997000000     2.383000000
