17
-97.54983
C    -0.364000000    -1.326000000     0.610000000
H    -0.687000000    -2.268000000     1.047000000
C    -1.266000000    -0.305000000     0.143000000
H    -2.337000000    -0.472000000     0.234000000
C    -0.789000000     0.947000000    -0.335000000
C    -1.829000000     1.998000000    -0.522000000
H    -2.612000000     1.520000000    -1.115000000
H    -2.165000000     2.474000000     0.401000000
H    -1.360000000     2.766000000    -1.140000000
C     0.593000000     1.122000000    -0.513000000
H     1.057000000     2.039000000    -0.868000000
C     1.465000000     0.073000000    -0.195000000
H     2.531000000     0.165000000    -0.391000000
C     1.010000000    -1.146000000     0.367000000
C     1.977000000    -2.254000000     0.658000000
O     3.149000000    -1.945000000     0.666000000
O     1.626000000    -3.381000000     0.952000000
