17
-86.54068
C    -1.226000000    -0.673000000     0.426000000
H    -2.139000000    -1.174000000     0.736000000
C    -0.890000000    -0.338000000    -0.975000000
H    -1.508000000    -0.600000000    -1.830000000
C     0.348000000     0.103000000    -1.175000000
C     0.740000000     0.473000000    -2.566000000
H     1.491000000     1.264000000    -2.531000000
H     1.209000000    -0.325000000    -3.145000000
H    -0.134000000     0.871000000    -3.086000000
C     1.212000000     0.444000000    -0.106000000
H     2.135000000     0.973000000    -0.330000000
C     0.808000000     0.227000000     1.246000000
H     1.547000000     0.590000000     1.955000000
C    -0.476000000    -0.274000000     1.527000000
C    -0.909000000    -0.467000000     2.911000000
O    -0.363000000     0.114000000     3.808000000
O    -1.844000000    -1.211000000     3.132000000
