17
-92.64420
C    -1.092000000    -1.011000000     0.157000000
H    -1.921000000    -1.714000000     0.141000000
C    -0.801000000    -0.272000000    -1.004000000
H    -1.396000000    -0.232000000    -1.912000000
C     0.255000000     0.628000000    -0.982000000
C     0.616000000     1.266000000    -2.347000000
H     1.032000000     2.236000000    -2.066000000
H     1.399000000     0.679000000    -2.831000000
H    -0.192000000     1.403000000    -3.068000000
C     1.021000000     0.894000000     0.164000000
H     1.763000000     1.686000000     0.103000000
C     0.742000000     0.118000000     1.350000000
H     1.258000000     0.397000000     2.265000000
C    -0.360000000    -0.830000000     1.324000000
C    -0.733000000    -1.513000000     2.581000000
O    -0.187000000    -1.206000000     3.614000000
O    -1.404000000    -2.532000000     2.512000000
