17
-97.29687
C    -1.134000000    -0.618000000     0.719000000
H    -1.992000000    -1.153000000     1.118000000
C    -0.533000000    -1.118000000    -0.433000000
H    -0.865000000    -2.052000000    -0.878000000
C     0.590000000    -0.478000000    -1.003000000
C     1.171000000    -0.889000000    -2.309000000
H     1.649000000    -1.859000000    -2.160000000
H     0.346000000    -1.089000000    -2.996000000
H     1.817000000    -0.092000000    -2.685000000
C     0.998000000     0.687000000    -0.434000000
H     1.839000000     1.221000000    -0.867000000
C     0.376000000     1.124000000     0.709000000
H     0.798000000     2.024000000     1.149000000
C    -0.734000000     0.554000000     1.317000000
C    -1.342000000     1.103000000     2.552000000
O    -1.172000000     2.307000000     2.815000000
O    -1.806000000     0.330000000     3.387000000
