17
-96.19004
C    -0.684000000    -0.909000000     1.015000000
H    -1.326000000    -1.512000000     1.653000000
C    -0.577000000    -1.137000000    -0.356000000
H    -0.898000000    -2.086000000    -0.778000000
C     0.000000000    -0.164000000    -1.210000000
C     0.112000000    -0.330000000    -2.698000000
H    -0.327000000     0.462000000    -3.309000000
H     1.122000000    -0.371000000    -3.111000000
H    -0.411000000    -1.279000000    -2.840000000
C     0.612000000     0.951000000    -0.659000000
H     1.232000000     1.580000000    -1.293000000
C     0.550000000     1.181000000     0.729000000
H     1.042000000     2.017000000     1.219000000
C    -0.066000000     0.213000000     1.487000000
C    -0.134000000     0.438000000     2.992000000
O     0.503000000     1.340000000     3.553000000
O    -0.748000000    -0.402000000     3.602000000
