17
-90.46837
C    -1.082000000    -0.512000000     0.899000000
H    -1.836000000    -1.003000000     1.509000000
C    -0.761000000    -1.025000000    -0.371000000
H    -1.350000000    -1.873000000    -0.711000000
C     0.347000000    -0.533000000    -1.083000000
C     0.747000000    -1.086000000    -2.404000000
H     0.327000000    -2.052000000    -2.694000000
H     0.461000000    -0.381000000    -3.187000000
H     1.807000000    -1.342000000    -2.454000000
C     0.949000000     0.567000000    -0.562000000
H     1.790000000     0.993000000    -1.104000000
C     0.571000000     1.190000000     0.636000000
H     1.253000000     1.942000000     1.024000000
C    -0.389000000     0.604000000     1.430000000
C    -0.875000000     1.324000000     2.676000000
O    -0.254000000     2.299000000     3.016000000
O    -1.708000000     0.882000000     3.387000000
