17
-99.39812
C    -0.274000000    -0.361000000     1.421000000
H    -0.470000000    -0.732000000     2.424000000
C     0.062000000    -1.286000000     0.423000000
H     0.096000000    -2.354000000     0.623000000
C     0.224000000    -0.817000000    -0.898000000
C     0.540000000    -1.807000000    -1.952000000
H     1.623000000    -1.829000000    -2.088000000
H     0.129000000    -2.800000000    -1.756000000
H     0.202000000    -1.470000000    -2.934000000
C     0.022000000     0.507000000    -1.172000000
H     0.226000000     0.961000000    -2.139000000
C    -0.269000000     1.387000000    -0.185000000
H    -0.309000000     2.453000000    -0.390000000
C    -0.354000000     0.998000000     1.159000000
C    -0.497000000     2.092000000     2.206000000
O    -0.959000000     3.181000000     1.933000000
O     0.012000000     1.880000000     3.327000000
