17
-86.11827
C    -0.245000000    -1.120000000     0.954000000
H    -0.325000000    -1.977000000     1.616000000
C     0.990000000    -0.680000000     0.528000000
H     1.827000000    -1.312000000     0.813000000
C     1.101000000     0.450000000    -0.317000000
C     2.478000000     0.946000000    -0.677000000
H     2.988000000     0.199000000    -1.289000000
H     2.337000000     1.824000000    -1.311000000
H     3.094000000     1.224000000     0.181000000
C    -0.015000000     1.053000000    -0.742000000
H     0.042000000     1.915000000    -1.402000000
C    -1.239000000     0.613000000    -0.336000000
H    -2.173000000     1.045000000    -0.688000000
C    -1.375000000    -0.464000000     0.584000000
C    -2.769000000    -1.052000000     0.731000000
O    -3.741000000    -0.578000000     0.102000000
O    -2.975000000    -2.081000000     1.250000000
