17
-95.99314
C     0.869000000    -0.730000000     0.886000000
H     1.439000000    -1.407000000     1.518000000
C    -0.005000000    -1.249000000    -0.105000000
H    -0.222000000    -2.314000000    -0.135000000
C    -0.845000000    -0.428000000    -0.844000000
C    -1.645000000    -1.104000000    -1.877000000
H    -0.987000000    -1.300000000    -2.726000000
H    -2.064000000    -2.064000000    -1.566000000
H    -2.498000000    -0.482000000    -2.157000000
C    -0.629000000     0.948000000    -0.763000000
H    -1.211000000     1.659000000    -1.344000000
C     0.252000000     1.476000000     0.188000000
H     0.162000000     2.523000000     0.468000000
C     1.018000000     0.622000000     1.045000000
C     1.884000000     1.152000000     2.139000000
O     1.740000000     2.278000000     2.659000000
O     2.743000000     0.416000000     2.619000000
