17
-97.45617
C    -0.910000000    -0.472000000     1.094000000
H    -1.570000000    -0.960000000     1.806000000
C    -0.845000000    -1.004000000    -0.204000000
H    -1.457000000    -1.860000000    -0.479000000
C     0.025000000    -0.472000000    -1.163000000
C     0.005000000    -0.914000000    -2.618000000
H     0.912000000    -0.705000000    -3.190000000
H     0.001000000    -2.002000000    -2.706000000
H    -0.830000000    -0.366000000    -3.060000000
C     0.895000000     0.561000000    -0.816000000
H     1.711000000     0.901000000    -1.449000000
C     0.874000000     1.050000000     0.520000000
H     1.624000000     1.771000000     0.835000000
C    -0.073000000     0.579000000     1.504000000
C    -0.110000000     1.152000000     2.921000000
O     0.712000000     1.983000000     3.327000000
O    -0.957000000     0.759000000     3.676000000
