17
-92.11192
C    -0.151000000    -0.144000000     1.408000000
H    -0.088000000    -0.269000000     2.486000000
C     0.605000000    -1.012000000     0.680000000
H     1.235000000    -1.781000000     1.121000000
C     0.658000000    -0.763000000    -0.705000000
C     1.610000000    -1.495000000    -1.584000000
H     1.456000000    -1.456000000    -2.665000000
H     2.653000000    -1.405000000    -1.274000000
H     1.360000000    -2.532000000    -1.352000000
C    -0.157000000     0.234000000    -1.277000000
H    -0.081000000     0.402000000    -2.348000000
C    -0.935000000     1.108000000    -0.501000000
H    -1.497000000     1.932000000    -0.932000000
C    -0.924000000     0.912000000     0.865000000
C    -1.690000000     1.831000000     1.790000000
O    -2.129000000     2.872000000     1.353000000
O    -1.933000000     1.562000000     2.928000000
