17
-89.95783
C    -0.974000000    -0.369000000     1.007000000
H    -1.664000000    -0.745000000     1.758000000
C     0.018000000    -1.194000000     0.488000000
H     0.042000000    -2.230000000     0.817000000
C     0.858000000    -0.780000000    -0.461000000
C     1.887000000    -1.699000000    -1.026000000
H     1.997000000    -2.578000000    -0.388000000
H     1.548000000    -1.978000000    -2.026000000
H     2.772000000    -1.125000000    -1.308000000
C     0.894000000     0.538000000    -0.781000000
H     1.583000000     0.935000000    -1.523000000
C    -0.065000000     1.447000000    -0.244000000
H    -0.102000000     2.501000000    -0.505000000
C    -1.035000000     0.978000000     0.668000000
C    -2.236000000     1.860000000     1.101000000
O    -2.277000000     3.049000000     0.845000000
O    -3.251000000     1.383000000     1.571000000
