17
-88.71835
C    -1.302000000    -0.564000000    -0.087000000
H    -2.230000000    -1.128000000    -0.061000000
C    -0.189000000    -1.203000000    -0.435000000
H    -0.130000000    -2.268000000    -0.646000000
C     0.996000000    -0.518000000    -0.312000000
C     2.342000000    -1.203000000    -0.615000000
H     2.066000000    -2.058000000    -1.235000000
H     2.990000000    -0.654000000    -1.301000000
H     2.912000000    -1.604000000     0.226000000
C     1.038000000     0.838000000     0.040000000
H     1.987000000     1.368000000     0.067000000
C    -0.152000000     1.438000000     0.370000000
H    -0.204000000     2.435000000     0.798000000
C    -1.317000000     0.776000000     0.256000000
C    -2.586000000     1.309000000     0.838000000
O    -2.550000000     2.325000000     1.452000000
O    -3.663000000     0.716000000     0.653000000
