17
-96.68303
C    -0.887000000    -1.118000000    -0.466000000
H    -1.469000000    -1.941000000    -0.873000000
C     0.532000000    -1.099000000    -0.522000000
H     0.950000000    -1.996000000    -0.972000000
C     1.243000000     0.066000000    -0.079000000
C     2.765000000    -0.072000000    -0.050000000
H     3.166000000    -0.748000000    -0.809000000
H     3.259000000     0.879000000    -0.259000000
H     3.127000000    -0.343000000     0.944000000
C     0.544000000     1.163000000     0.367000000
H     1.185000000     2.003000000     0.624000000
C    -0.869000000     1.094000000     0.479000000
H    -1.440000000     1.902000000     0.929000000
C    -1.588000000    -0.009000000     0.031000000
C    -3.105000000     0.035000000     0.147000000
O    -3.620000000     1.049000000     0.700000000
O    -3.789000000    -0.867000000    -0.188000000
