17
-95.61036
C    -1.377000000    -0.508000000     0.120000000
H    -2.264000000    -1.122000000     0.252000000
C    -0.331000000    -1.135000000    -0.501000000
H    -0.416000000    -2.108000000    -0.978000000
C     0.866000000    -0.520000000    -0.675000000
C     2.035000000    -1.316000000    -1.234000000
H     1.756000000    -2.297000000    -1.624000000
H     2.504000000    -0.725000000    -2.024000000
H     2.869000000    -1.435000000    -0.540000000
C     1.100000000     0.706000000    -0.052000000
H     2.124000000     1.072000000    -0.037000000
C     0.047000000     1.354000000     0.661000000
H     0.191000000     2.233000000     1.285000000
C    -1.210000000     0.745000000     0.679000000
C    -2.326000000     1.496000000     1.360000000
O    -2.170000000     2.621000000     1.793000000
O    -3.406000000     0.934000000     1.507000000
