17
-92.62530
C    -0.398000000     1.265000000    -0.622000000
H    -0.845000000     2.092000000    -1.169000000
C    -1.170000000     0.114000000    -0.600000000
H    -2.128000000     0.112000000    -1.114000000
C    -0.685000000    -1.014000000     0.041000000
C    -1.562000000    -2.206000000     0.143000000
H    -1.673000000    -2.785000000    -0.777000000
H    -1.189000000    -2.908000000     0.891000000
H    -2.511000000    -1.972000000     0.629000000
C     0.516000000    -0.980000000     0.738000000
H     0.942000000    -1.857000000     1.219000000
C     1.371000000     0.216000000     0.668000000
H     2.379000000     0.141000000     1.068000000
C     0.897000000     1.304000000    -0.077000000
C     1.774000000     2.495000000    -0.318000000
O     2.989000000     2.390000000    -0.326000000
O     1.298000000     3.588000000    -0.399000000
