17
-99.14557
C    -0.362000000     1.266000000    -0.609000000
H    -0.691000000     2.187000000    -1.084000000
C    -1.254000000     0.265000000    -0.129000000
H    -2.330000000     0.413000000    -0.159000000
C    -0.740000000    -0.920000000     0.394000000
C    -1.747000000    -1.972000000     0.731000000
H    -2.153000000    -2.451000000    -0.163000000
H    -1.410000000    -2.780000000     1.384000000
H    -2.610000000    -1.585000000     1.275000000
C     0.637000000    -1.005000000     0.537000000
H     0.948000000    -2.000000000     0.842000000
C     1.517000000     0.034000000     0.267000000
H     2.581000000    -0.114000000     0.434000000
C     1.026000000     1.176000000    -0.383000000
C     1.928000000     2.236000000    -0.928000000
O     3.124000000     2.216000000    -0.627000000
O     1.538000000     3.042000000    -1.778000000
