17
-98.32959
C    -0.819000000     1.049000000    -0.662000000
H    -1.514000000     1.788000000    -1.052000000
C    -1.225000000    -0.234000000    -0.428000000
H    -2.245000000    -0.519000000    -0.673000000
C    -0.375000000    -1.185000000     0.158000000
C    -0.793000000    -2.538000000     0.580000000
H    -1.733000000    -2.919000000     0.175000000
H     0.016000000    -3.173000000     0.215000000
H    -0.874000000    -2.571000000     1.669000000
C     0.903000000    -0.809000000     0.443000000
H     1.642000000    -1.510000000     0.822000000
C     1.336000000     0.527000000     0.249000000
H     2.353000000     0.818000000     0.500000000
C     0.457000000     1.464000000    -0.216000000
C     0.834000000     2.878000000    -0.546000000
O     1.993000000     3.116000000    -0.850000000
O     0.042000000     3.822000000    -0.389000000
