17
-91.08187
C    -0.644000000     1.295000000     0.375000000
H    -1.245000000     2.161000000     0.643000000
C    -1.169000000     0.042000000     0.530000000
H    -2.189000000    -0.166000000     0.841000000
C    -0.475000000    -1.097000000     0.208000000
C    -1.015000000    -2.505000000     0.334000000
H    -1.770000000    -2.611000000     1.116000000
H    -1.482000000    -2.902000000    -0.570000000
H    -0.378000000    -3.343000000     0.624000000
C     0.794000000    -0.968000000    -0.338000000
H     1.461000000    -1.756000000    -0.679000000
C     1.387000000     0.299000000    -0.539000000
H     2.423000000     0.373000000    -0.857000000
C     0.643000000     1.486000000    -0.185000000
C     1.103000000     2.847000000    -0.425000000
O     2.166000000     3.062000000    -0.958000000
O     0.384000000     3.777000000    -0.118000000
