17
-95.43710
C    -0.496000000     1.356000000     0.207000000
H    -0.914000000     2.293000000     0.567000000
C    -0.640000000     0.231000000     1.048000000
H    -1.228000000     0.269000000     1.962000000
C    -0.226000000    -1.043000000     0.669000000
C    -0.436000000    -2.174000000     1.653000000
H    -0.258000000    -1.691000000     2.616000000
H    -1.461000000    -2.531000000     1.539000000
H     0.262000000    -3.005000000     1.524000000
C     0.504000000    -1.127000000    -0.540000000
H     1.035000000    -2.045000000    -0.777000000
C     0.823000000     0.006000000    -1.251000000
H     1.362000000    -0.135000000    -2.185000000
C     0.287000000     1.245000000    -0.939000000
C     0.479000000     2.474000000    -1.763000000
O     1.008000000     2.407000000    -2.914000000
O    -0.103000000     3.472000000    -1.421000000
