17
-91.71984
C    -0.174000000     1.474000000     0.207000000
H    -0.331000000     2.469000000     0.614000000
C    -0.821000000     0.449000000     0.863000000
H    -1.438000000     0.693000000     1.724000000
C    -0.572000000    -0.893000000     0.646000000
C    -1.231000000    -1.940000000     1.442000000
H    -1.622000000    -2.685000000     0.746000000
H    -0.453000000    -2.503000000     1.962000000
H    -1.948000000    -1.525000000     2.154000000
C     0.254000000    -1.258000000    -0.393000000
H     0.507000000    -2.304000000    -0.543000000
C     0.876000000    -0.207000000    -1.224000000
H     1.572000000    -0.524000000    -1.997000000
C     0.723000000     1.149000000    -0.866000000
C     1.353000000     2.246000000    -1.674000000
O     2.243000000     2.022000000    -2.445000000
O     1.066000000     3.340000000    -1.214000000
