17
-95.80669
C     0.352000000     1.367000000     0.291000000
H     0.460000000     2.433000000     0.474000000
C     0.210000000     0.370000000     1.192000000
H     0.412000000     0.537000000     2.247000000
C    -0.166000000    -0.910000000     0.812000000
C    -0.284000000    -1.884000000     1.931000000
H    -0.477000000    -2.881000000     1.530000000
H     0.588000000    -1.861000000     2.588000000
H    -1.117000000    -1.594000000     2.574000000
C    -0.381000000    -1.175000000    -0.561000000
H    -0.792000000    -2.159000000    -0.774000000
C    -0.137000000    -0.185000000    -1.511000000
H    -0.267000000    -0.460000000    -2.554000000
C     0.153000000     1.127000000    -1.056000000
C     0.355000000     2.175000000    -2.147000000
O     0.518000000     1.796000000    -3.273000000
O     0.573000000     3.304000000    -1.757000000
