17
-99.89118
C     0.173000000    -1.076000000     0.954000000
H     0.515000000    -1.832000000     1.657000000
C     1.209000000    -0.500000000     0.191000000
H     2.244000000    -0.813000000     0.302000000
C     0.865000000     0.477000000    -0.762000000
C     1.908000000     1.055000000    -1.665000000
H     1.416000000     1.774000000    -2.324000000
H     2.649000000     1.539000000    -1.026000000
H     2.422000000     0.323000000    -2.292000000
C    -0.476000000     0.919000000    -0.793000000
H    -0.713000000     1.720000000    -1.488000000
C    -1.468000000     0.362000000    -0.026000000
H    -2.475000000     0.770000000    -0.062000000
C    -1.118000000    -0.629000000     0.887000000
C    -2.127000000    -1.261000000     1.853000000
O    -3.221000000    -0.720000000     1.930000000
O    -1.809000000    -2.107000000     2.661000000
