17
-91.58039
C    -0.501000000     1.313000000    -0.381000000
H    -0.878000000     2.315000000    -0.572000000
C    -1.019000000     0.498000000     0.660000000
H    -1.818000000     0.980000000     1.217000000
C    -0.450000000    -0.750000000     0.897000000
C    -1.125000000    -1.625000000     1.925000000
H    -0.623000000    -2.553000000     2.206000000
H    -1.193000000    -1.108000000     2.885000000
H    -2.065000000    -2.056000000     1.575000000
C     0.660000000    -1.210000000     0.079000000
H     1.198000000    -2.129000000     0.293000000
C     1.188000000    -0.276000000    -0.853000000
H     2.021000000    -0.536000000    -1.502000000
C     0.590000000     0.915000000    -1.109000000
C     1.160000000     1.820000000    -2.180000000
O     2.285000000     1.622000000    -2.499000000
O     0.563000000     2.787000000    -2.635000000
