17
-92.20442
C    -0.131000000     1.504000000     0.060000000
H    -0.288000000     2.579000000     0.098000000
C    -0.782000000     0.619000000     0.937000000
H    -1.445000000     0.892000000     1.754000000
C    -0.607000000    -0.725000000     0.733000000
C    -1.213000000    -1.827000000     1.632000000
H    -2.211000000    -2.046000000     1.246000000
H    -0.519000000    -2.661000000     1.508000000
H    -1.258000000    -1.474000000     2.665000000
C     0.223000000    -1.203000000    -0.235000000
H     0.389000000    -2.276000000    -0.194000000
C     0.863000000    -0.327000000    -1.089000000
H     1.566000000    -0.751000000    -1.801000000
C     0.683000000     1.048000000    -0.947000000
C     1.469000000     1.951000000    -1.820000000
O     1.963000000     1.546000000    -2.881000000
O     1.296000000     3.159000000    -1.670000000
