17
-89.00429
C     0.281000000     1.447000000    -0.032000000
H     0.621000000     2.479000000    -0.062000000
C     0.572000000     0.553000000     1.065000000
H     1.042000000     0.854000000     1.998000000
C     0.203000000    -0.752000000     0.943000000
C     0.514000000    -1.679000000     2.104000000
H     0.887000000    -1.238000000     3.031000000
H    -0.287000000    -2.366000000     2.385000000
H     1.245000000    -2.388000000     1.710000000
C    -0.500000000    -1.193000000    -0.221000000
H    -0.633000000    -2.271000000    -0.176000000
C    -0.763000000    -0.338000000    -1.257000000
H    -1.253000000    -0.706000000    -2.155000000
C    -0.184000000     0.958000000    -1.244000000
C    -0.475000000     1.916000000    -2.374000000
O    -0.945000000     1.580000000    -3.457000000
O    -0.328000000     3.145000000    -2.257000000
