17
-87.09897
C     0.450000000     1.368000000    -0.019000000
H     0.832000000     2.367000000     0.172000000
C     0.737000000     0.421000000     0.971000000
H     1.277000000     0.635000000     1.890000000
C     0.217000000    -0.819000000     0.818000000
C     0.536000000    -1.822000000     1.925000000
H     1.463000000    -2.379000000     1.776000000
H     0.524000000    -1.428000000     2.944000000
H    -0.232000000    -2.592000000     2.025000000
C    -0.542000000    -1.124000000    -0.242000000
H    -0.980000000    -2.118000000    -0.292000000
C    -0.751000000    -0.240000000    -1.267000000
H    -1.435000000    -0.617000000    -2.023000000
C    -0.224000000     1.055000000    -1.162000000
C    -0.559000000     2.138000000    -2.189000000
O    -1.171000000     1.886000000    -3.208000000
O    -0.142000000     3.274000000    -2.112000000
