17
-97.24453
C     0.304000000     1.463000000    -0.142000000
H     0.541000000     2.522000000    -0.079000000
C     0.865000000     0.622000000     0.778000000
H     1.543000000     0.969000000     1.553000000
C     0.570000000    -0.758000000     0.769000000
C     1.115000000    -1.661000000     1.865000000
H     1.581000000    -2.467000000     1.294000000
H     1.913000000    -1.281000000     2.506000000
H     0.344000000    -2.171000000     2.447000000
C    -0.384000000    -1.246000000    -0.107000000
H    -0.697000000    -2.285000000    -0.051000000
C    -1.092000000    -0.402000000    -1.000000000
H    -1.863000000    -0.766000000    -1.675000000
C    -0.619000000     0.948000000    -1.107000000
C    -1.195000000     1.893000000    -2.113000000
O    -2.271000000     1.628000000    -2.618000000
O    -0.655000000     2.984000000    -2.312000000
