17
-93.95101
C     0.604000000     1.282000000    -0.495000000
H     1.088000000     2.221000000    -0.749000000
C     1.294000000     0.346000000     0.224000000
H     2.333000000     0.538000000     0.481000000
C     0.703000000    -0.862000000     0.549000000
C     1.414000000    -1.951000000     1.245000000
H     2.483000000    -1.728000000     1.279000000
H     0.893000000    -2.102000000     2.193000000
H     1.342000000    -2.773000000     0.529000000
C    -0.652000000    -1.061000000     0.390000000
H    -1.172000000    -1.931000000     0.783000000
C    -1.420000000    -0.082000000    -0.262000000
H    -2.490000000    -0.200000000    -0.413000000
C    -0.802000000     1.099000000    -0.716000000
C    -1.670000000     2.109000000    -1.486000000
O    -2.848000000     2.023000000    -1.530000000
O    -1.096000000     3.070000000    -2.027000000
