17
-94.26388
C     0.801000000     0.842000000    -0.938000000
H     1.336000000     1.304000000    -1.764000000
C     0.798000000    -0.551000000    -0.904000000
H     1.356000000    -1.140000000    -1.627000000
C    -0.046000000    -1.271000000    -0.037000000
C    -0.314000000    -2.678000000    -0.181000000
H     0.449000000    -3.213000000     0.387000000
H    -1.248000000    -2.919000000     0.331000000
H    -0.392000000    -3.032000000    -1.211000000
C    -0.705000000    -0.570000000     1.000000000
H    -1.299000000    -1.070000000     1.761000000
C    -0.563000000     0.845000000     1.109000000
H    -1.072000000     1.341000000     1.931000000
C     0.205000000     1.567000000     0.081000000
C     0.232000000     3.105000000     0.035000000
O    -0.237000000     3.701000000     0.962000000
O     0.706000000     3.741000000    -0.933000000
