17
-95.08418
C     0.281000000     1.090000000    -1.018000000
H     0.561000000     1.685000000    -1.883000000
C     0.480000000    -0.326000000    -1.202000000
H     0.909000000    -0.670000000    -2.139000000
C     0.102000000    -1.220000000    -0.168000000
C     0.217000000    -2.658000000    -0.210000000
H     0.959000000    -3.046000000     0.491000000
H    -0.706000000    -3.168000000     0.074000000
H     0.473000000    -3.023000000    -1.207000000
C    -0.358000000    -0.722000000     1.062000000
H    -0.554000000    -1.461000000     1.834000000
C    -0.603000000     0.648000000     1.183000000
H    -0.962000000     1.022000000     2.139000000
C    -0.217000000     1.543000000     0.145000000
C    -0.225000000     3.036000000     0.319000000
O    -0.223000000     3.647000000     1.358000000
O    -0.134000000     3.623000000    -0.781000000
