17
-89.75917
C     0.054000000     0.951000000    -1.145000000
H     0.034000000     1.510000000    -2.077000000
C     0.572000000    -0.313000000    -1.167000000
H     0.945000000    -0.676000000    -2.121000000
C     0.492000000    -1.139000000    -0.007000000
C     0.946000000    -2.571000000     0.045000000
H     2.026000000    -2.648000000    -0.097000000
H     0.647000000    -2.952000000     1.024000000
H     0.481000000    -3.177000000    -0.735000000
C    -0.183000000    -0.651000000     1.126000000
H    -0.489000000    -1.267000000     1.968000000
C    -0.642000000     0.654000000     1.131000000
H    -1.199000000     0.945000000     2.018000000
C    -0.561000000     1.483000000    -0.034000000
C    -0.962000000     2.878000000    -0.021000000
O    -1.885000000     3.254000000     0.649000000
O    -0.271000000     3.712000000    -0.559000000
