17
-85.27981
C     0.537000000     0.410000000    -1.364000000
H     0.715000000     0.444000000    -2.435000000
C    -0.488000000    -0.500000000    -1.086000000
H    -0.914000000    -1.107000000    -1.881000000
C    -0.947000000    -0.697000000     0.178000000
C    -1.953000000    -1.763000000     0.496000000
H    -2.794000000    -1.751000000    -0.202000000
H    -1.524000000    -2.743000000     0.279000000
H    -2.313000000    -1.855000000     1.523000000
C    -0.371000000    -0.031000000     1.236000000
H    -0.727000000    -0.258000000     2.237000000
C     0.631000000     0.888000000     0.984000000
H     1.077000000     1.270000000     1.898000000
C     1.150000000     1.121000000    -0.313000000
C     2.300000000     2.021000000    -0.467000000
O     2.746000000     2.606000000     0.444000000
O     2.867000000     1.945000000    -1.524000000
