17
-95.55537
C     0.796000000     0.935000000    -0.854000000
H     1.249000000     1.634000000    -1.553000000
C    -0.170000000    -0.009000000    -1.300000000
H    -0.371000000    -0.086000000    -2.365000000
C    -0.851000000    -0.836000000    -0.405000000
C    -1.851000000    -1.860000000    -0.901000000
H    -1.297000000    -2.670000000    -1.380000000
H    -2.414000000    -2.371000000    -0.117000000
H    -2.577000000    -1.425000000    -1.591000000
C    -0.612000000    -0.643000000     0.944000000
H    -1.271000000    -1.187000000     1.616000000
C     0.389000000     0.254000000     1.446000000
H     0.459000000     0.574000000     2.483000000
C     1.159000000     0.935000000     0.518000000
C     2.150000000     2.018000000     1.033000000
O     2.848000000     1.705000000     1.989000000
O     2.360000000     3.035000000     0.430000000
