17
-96.16172
C     0.905000000     0.412000000    -1.071000000
H     1.651000000     0.695000000    -1.810000000
C     0.427000000    -0.910000000    -0.957000000
H     0.766000000    -1.615000000    -1.712000000
C    -0.396000000    -1.148000000     0.178000000
C    -0.853000000    -2.587000000     0.430000000
H    -0.495000000    -3.018000000     1.367000000
H    -1.935000000    -2.678000000     0.315000000
H    -0.446000000    -3.216000000    -0.365000000
C    -0.851000000    -0.126000000     1.006000000
H    -1.521000000    -0.244000000     1.854000000
C    -0.386000000     1.182000000     0.858000000
H    -0.799000000     1.974000000     1.478000000
C     0.504000000     1.451000000    -0.205000000
C     0.991000000     2.895000000    -0.380000000
O     0.463000000     3.867000000     0.092000000
O     1.976000000     3.061000000    -1.085000000
