17
-87.66281
C     1.028000000    -0.967000000     0.322000000
H     1.891000000    -1.616000000     0.447000000
C     1.067000000     0.054000000    -0.674000000
H     2.049000000     0.242000000    -1.102000000
C     0.066000000     0.972000000    -0.796000000
C     0.171000000     2.029000000    -1.823000000
H     1.219000000     2.249000000    -1.611000000
H     0.014000000     1.685000000    -2.848000000
H    -0.426000000     2.918000000    -1.611000000
C    -1.142000000     0.786000000    -0.050000000
H    -1.940000000     1.503000000    -0.226000000
C    -1.207000000    -0.283000000     0.831000000
H    -2.069000000    -0.437000000     1.476000000
C    -0.156000000    -1.187000000     1.011000000
C    -0.184000000    -2.342000000     1.985000000
O    -1.223000000    -2.730000000     2.351000000
O     0.850000000    -2.878000000     2.325000000
