17
-103.55372
C     0.912000000     0.957000000     0.638000000
H     1.596000000     1.595000000     1.192000000
C     0.783000000    -0.377000000     1.000000000
H     1.239000000    -0.775000000     1.903000000
C    -0.059000000    -1.190000000     0.219000000
C    -0.298000000    -2.623000000     0.698000000
H     0.527000000    -3.297000000     0.457000000
H    -0.373000000    -2.671000000     1.786000000
H    -1.174000000    -3.013000000     0.175000000
C    -0.867000000    -0.646000000    -0.786000000
H    -1.626000000    -1.294000000    -1.216000000
C    -0.695000000     0.704000000    -1.139000000
H    -1.387000000     1.082000000    -1.887000000
C     0.241000000     1.482000000    -0.449000000
C     0.356000000     2.986000000    -0.777000000
O    -0.214000000     3.400000000    -1.786000000
O     1.037000000     3.681000000    -0.034000000
