17
-97.57197
C     1.100000000     0.917000000     0.521000000
H     1.872000000     1.483000000     1.034000000
C     1.034000000    -0.508000000     0.630000000
H     1.752000000    -1.087000000     1.205000000
C     0.006000000    -1.247000000     0.120000000
C    -0.090000000    -2.682000000     0.352000000
H     0.851000000    -3.071000000     0.745000000
H    -0.873000000    -2.940000000     1.068000000
H    -0.348000000    -3.278000000    -0.526000000
C    -1.034000000    -0.554000000    -0.512000000
H    -1.786000000    -1.146000000    -1.027000000
C    -0.967000000     0.810000000    -0.779000000
H    -1.782000000     1.349000000    -1.255000000
C     0.161000000     1.568000000    -0.264000000
C     0.078000000     3.073000000    -0.431000000
O    -0.685000000     3.501000000    -1.245000000
O     0.704000000     3.809000000     0.369000000
