17
-95.12327
C     1.361000000     0.280000000    -0.478000000
H     2.422000000     0.301000000    -0.714000000
C     0.691000000    -0.924000000    -0.552000000
H     1.115000000    -1.835000000    -0.966000000
C    -0.652000000    -1.007000000    -0.210000000
C    -1.438000000    -2.216000000    -0.522000000
H    -2.512000000    -2.185000000    -0.327000000
H    -1.241000000    -2.574000000    -1.534000000
H    -1.054000000    -3.082000000     0.021000000
C    -1.207000000     0.075000000     0.498000000
H    -2.229000000    -0.006000000     0.860000000
C    -0.502000000     1.247000000     0.632000000
H    -0.924000000     2.104000000     1.150000000
C     0.782000000     1.340000000     0.143000000
C     1.596000000     2.490000000     0.573000000
O     1.019000000     3.415000000     1.146000000
O     2.773000000     2.580000000     0.281000000
