17
-94.99970
C    -0.186000000     1.332000000     0.609000000
H    -0.217000000     2.204000000     1.257000000
C     0.335000000     0.211000000     1.223000000
H     0.719000000     0.299000000     2.236000000
C     0.390000000    -1.007000000     0.592000000
C     1.048000000    -2.237000000     1.248000000
H     0.298000000    -2.838000000     1.767000000
H     1.631000000    -2.865000000     0.570000000
H     1.807000000    -1.888000000     1.952000000
C    -0.145000000    -1.068000000    -0.683000000
H    -0.064000000    -1.970000000    -1.283000000
C    -0.592000000     0.039000000    -1.370000000
H    -0.855000000    -0.098000000    -2.416000000
C    -0.645000000     1.315000000    -0.683000000
C    -1.044000000     2.536000000    -1.456000000
O    -1.249000000     2.443000000    -2.655000000
O    -1.229000000     3.590000000    -0.903000000
