17
-93.98064
C    -0.947000000     1.089000000     0.371000000
H    -1.436000000     1.992000000     0.730000000
C     0.016000000     0.503000000     1.204000000
H     0.193000000     0.988000000     2.161000000
C     0.715000000    -0.602000000     0.787000000
C     1.923000000    -1.073000000     1.584000000
H     1.689000000    -2.108000000     1.843000000
H     2.821000000    -1.116000000     0.965000000
H     2.120000000    -0.529000000     2.510000000
C     0.531000000    -1.143000000    -0.454000000
H     1.174000000    -1.944000000    -0.808000000
C    -0.269000000    -0.406000000    -1.369000000
H    -0.195000000    -0.644000000    -2.427000000
C    -1.134000000     0.602000000    -0.918000000
C    -2.100000000     1.304000000    -1.818000000
O    -2.056000000     1.125000000    -3.009000000
O    -3.046000000     1.959000000    -1.350000000
