17
-93.43817
C    -1.091000000     0.890000000     0.539000000
H    -1.764000000     1.488000000     1.148000000
C     0.167000000     0.613000000     1.135000000
H     0.514000000     1.109000000     2.038000000
C     1.024000000    -0.267000000     0.575000000
C     2.222000000    -0.713000000     1.372000000
H     2.829000000     0.043000000     1.874000000
H     1.915000000    -1.402000000     2.162000000
H     2.831000000    -1.288000000     0.671000000
C     0.786000000    -0.779000000    -0.684000000
H     1.498000000    -1.435000000    -1.177000000
C    -0.359000000    -0.432000000    -1.371000000
H    -0.514000000    -0.816000000    -2.376000000
C    -1.330000000     0.407000000    -0.795000000
C    -2.598000000     0.770000000    -1.518000000
O    -2.722000000     0.439000000    -2.680000000
O    -3.402000000     1.381000000    -0.911000000
