17
-93.05437
C     0.063000000    -1.133000000     1.020000000
H     0.075000000    -1.954000000     1.733000000
C     1.003000000    -0.074000000     0.965000000
H     1.799000000     0.043000000     1.696000000
C     0.798000000     0.922000000     0.000000000
C     1.672000000     2.145000000    -0.052000000
H     2.228000000     2.172000000    -0.992000000
H     0.973000000     2.975000000     0.065000000
H     2.371000000     2.077000000     0.784000000
C    -0.283000000     0.905000000    -0.891000000
H    -0.299000000     1.658000000    -1.674000000
C    -1.082000000    -0.219000000    -0.932000000
H    -1.714000000    -0.230000000    -1.817000000
C    -0.913000000    -1.243000000     0.020000000
C    -1.976000000    -2.347000000     0.031000000
O    -2.952000000    -2.366000000    -0.674000000
O    -1.760000000    -3.339000000     0.721000000
