17
-89.08893
C     0.454000000     0.652000000     1.234000000
H     0.899000000     1.046000000     2.144000000
C     0.556000000    -0.700000000     0.943000000
H     0.895000000    -1.396000000     1.706000000
C     0.192000000    -1.205000000    -0.304000000
C     0.259000000    -2.676000000    -0.565000000
H    -0.343000000    -3.148000000     0.214000000
H    -0.278000000    -3.016000000    -1.453000000
H     1.260000000    -3.111000000    -0.600000000
C    -0.329000000    -0.297000000    -1.245000000
H    -0.611000000    -0.671000000    -2.226000000
C    -0.448000000     1.054000000    -0.907000000
H    -0.904000000     1.739000000    -1.618000000
C    -0.121000000     1.561000000     0.315000000
C    -0.299000000     3.028000000     0.672000000
O    -1.105000000     3.620000000    -0.034000000
O    -0.076000000     3.527000000     1.725000000
