17
-91.94780
C    -1.106000000     0.523000000     0.899000000
H    -1.841000000     0.835000000     1.638000000
C     0.165000000     0.097000000     1.286000000
H     0.424000000     0.134000000     2.341000000
C     1.107000000    -0.305000000     0.394000000
C     2.420000000    -0.932000000     0.818000000
H     2.500000000    -0.928000000     1.907000000
H     2.444000000    -1.941000000     0.403000000
H     3.218000000    -0.322000000     0.389000000
C     0.812000000    -0.424000000    -0.962000000
H     1.595000000    -0.730000000    -1.651000000
C    -0.490000000    -0.095000000    -1.316000000
H    -0.730000000    -0.225000000    -2.369000000
C    -1.416000000     0.523000000    -0.435000000
C    -2.689000000     1.105000000    -0.939000000
O    -2.859000000     1.169000000    -2.155000000
O    -3.562000000     1.511000000    -0.241000000
