17
-88.18630
C    -1.200000000     0.474000000     0.719000000
H    -2.026000000     0.748000000     1.371000000
C     0.042000000     0.353000000     1.244000000
H     0.348000000     0.638000000     2.247000000
C     1.113000000    -0.151000000     0.466000000
C     2.518000000    -0.400000000     1.074000000
H     2.281000000    -0.426000000     2.140000000
H     2.867000000    -1.343000000     0.650000000
H     3.163000000     0.450000000     0.840000000
C     0.916000000    -0.400000000    -0.872000000
H     1.777000000    -0.582000000    -1.510000000
C    -0.344000000    -0.210000000    -1.466000000
H    -0.438000000    -0.235000000    -2.549000000
C    -1.399000000     0.220000000    -0.640000000
C    -2.817000000     0.210000000    -1.104000000
O    -3.095000000    -0.005000000    -2.235000000
O    -3.700000000     0.651000000    -0.377000000
