17
-89.55171
C     0.667000000     0.531000000     1.205000000
H     1.194000000     0.749000000     2.131000000
C     0.630000000    -0.746000000     0.736000000
H     1.121000000    -1.542000000     1.291000000
C     0.051000000    -1.104000000    -0.466000000
C     0.025000000    -2.590000000    -0.894000000
H     0.010000000    -3.171000000     0.031000000
H    -0.811000000    -3.002000000    -1.463000000
H     0.963000000    -2.842000000    -1.393000000
C    -0.697000000    -0.169000000    -1.193000000
H    -1.134000000    -0.265000000    -2.184000000
C    -0.711000000     1.124000000    -0.681000000
H    -1.268000000     1.793000000    -1.332000000
C    -0.072000000     1.511000000     0.519000000
C    -0.052000000     2.897000000     1.097000000
O    -0.467000000     3.787000000     0.450000000
O     0.547000000     3.042000000     2.138000000
