17
-92.62158
C     1.033000000     0.905000000     0.573000000
H     1.815000000     1.431000000     1.115000000
C     0.431000000    -0.227000000     1.142000000
H     0.608000000    -0.506000000     2.177000000
C    -0.532000000    -0.944000000     0.532000000
C    -0.965000000    -2.245000000     1.193000000
H    -0.229000000    -3.033000000     1.021000000
H    -1.148000000    -2.065000000     2.254000000
H    -1.924000000    -2.517000000     0.746000000
C    -0.863000000    -0.655000000    -0.768000000
H    -1.468000000    -1.334000000    -1.364000000
C    -0.303000000     0.414000000    -1.402000000
H    -0.689000000     0.629000000    -2.395000000
C     0.588000000     1.255000000    -0.703000000
C     1.064000000     2.603000000    -1.238000000
O     0.554000000     3.179000000    -2.181000000
O     2.034000000     3.118000000    -0.705000000
