17
-86.53151
C    -1.028000000     1.126000000    -0.264000000
H    -1.816000000     1.870000000    -0.336000000
C    -1.304000000    -0.207000000     0.118000000
H    -2.324000000    -0.402000000     0.439000000
C    -0.281000000    -1.208000000     0.274000000
C    -0.510000000    -2.560000000     0.899000000
H    -1.492000000    -2.580000000     1.375000000
H    -0.581000000    -3.326000000     0.124000000
H     0.246000000    -2.913000000     1.604000000
C     1.002000000    -0.784000000     0.003000000
H     1.812000000    -1.503000000     0.092000000
C     1.249000000     0.539000000    -0.413000000
H     2.297000000     0.799000000    -0.537000000
C     0.264000000     1.474000000    -0.457000000
C     0.698000000     2.883000000    -0.796000000
O     1.817000000     3.185000000    -0.690000000
O    -0.054000000     3.601000000    -1.442000000
