17
-93.17424
C    -0.163000000     0.972000000     1.159000000
H    -0.354000000     1.561000000     2.052000000
C     0.199000000    -0.326000000     1.291000000
H     0.219000000    -0.849000000     2.244000000
C     0.285000000    -1.181000000     0.140000000
C     0.790000000    -2.594000000     0.302000000
H     0.301000000    -3.103000000     1.136000000
H     0.720000000    -3.131000000    -0.646000000
H     1.846000000    -2.569000000     0.580000000
C     0.147000000    -0.681000000    -1.174000000
H     0.315000000    -1.313000000    -2.042000000
C    -0.222000000     0.668000000    -1.321000000
H    -0.380000000     1.107000000    -2.303000000
C    -0.405000000     1.495000000    -0.139000000
C    -0.882000000     2.915000000    -0.371000000
O    -1.264000000     3.347000000    -1.475000000
O    -1.151000000     3.677000000     0.572000000
