17
-91.66261
C    -0.550000000     1.151000000     0.720000000
H    -0.819000000     2.016000000     1.321000000
C    -0.056000000    -0.033000000     1.335000000
H    -0.134000000    -0.153000000     2.412000000
C     0.409000000    -1.069000000     0.564000000
C     0.889000000    -2.316000000     1.118000000
H     0.100000000    -3.052000000     0.947000000
H     1.763000000    -2.631000000     0.545000000
H     1.140000000    -2.314000000     2.181000000
C     0.334000000    -0.873000000    -0.796000000
H     0.610000000    -1.735000000    -1.398000000
C    -0.032000000     0.300000000    -1.408000000
H     0.023000000     0.271000000    -2.493000000
C    -0.565000000     1.340000000    -0.626000000
C    -0.908000000     2.675000000    -1.296000000
O    -0.530000000     3.002000000    -2.401000000
O    -1.674000000     3.429000000    -0.724000000
