17
-91.88335
C    -0.315000000     0.230000000    -1.423000000
H    -0.560000000     0.448000000    -2.459000000
C    -1.293000000     0.073000000    -0.491000000
H    -2.347000000     0.066000000    -0.757000000
C    -0.893000000    -0.193000000     0.830000000
C    -1.810000000    -0.617000000     1.960000000
H    -2.007000000     0.225000000     2.626000000
H    -2.670000000    -1.059000000     1.453000000
H    -1.358000000    -1.424000000     2.540000000
C     0.459000000    -0.189000000     1.164000000
H     0.696000000    -0.338000000     2.214000000
C     1.435000000     0.106000000     0.232000000
H     2.465000000     0.276000000     0.533000000
C     1.062000000     0.307000000    -1.123000000
C     2.121000000     0.613000000    -2.162000000
O     3.164000000     1.022000000    -1.820000000
O     1.858000000     0.457000000    -3.324000000
