17
-93.00264
C    -0.032000000    -1.457000000    -0.043000000
H     0.066000000    -2.539000000     0.000000000
C     1.091000000    -0.726000000     0.262000000
H     2.085000000    -1.138000000     0.422000000
C     1.043000000     0.651000000     0.125000000
C     2.278000000     1.501000000     0.403000000
H     2.213000000     2.456000000    -0.121000000
H     2.323000000     1.864000000     1.432000000
H     3.157000000     0.881000000     0.213000000
C    -0.226000000     1.252000000    -0.134000000
H    -0.342000000     2.330000000    -0.219000000
C    -1.378000000     0.511000000    -0.200000000
H    -2.335000000     0.999000000    -0.364000000
C    -1.298000000    -0.862000000    -0.180000000
C    -2.531000000    -1.711000000    -0.468000000
O    -3.609000000    -1.125000000    -0.605000000
O    -2.500000000    -2.885000000    -0.525000000
