17
-89.11557
C     0.366000000    -0.943000000    -1.034000000
H     0.417000000    -1.618000000    -1.884000000
C    -0.642000000    -1.069000000    -0.102000000
H    -1.247000000    -1.972000000    -0.143000000
C    -0.845000000    -0.127000000     0.943000000
C    -1.866000000    -0.457000000     2.016000000
H    -1.174000000    -0.487000000     2.860000000
H    -2.647000000     0.293000000     2.156000000
H    -2.347000000    -1.354000000     1.621000000
C     0.001000000     0.961000000     0.973000000
H    -0.066000000     1.641000000     1.819000000
C     0.982000000     1.135000000    -0.013000000
H     1.563000000     2.052000000    -0.075000000
C     1.148000000     0.201000000    -1.047000000
C     2.003000000     0.490000000    -2.294000000
O     2.534000000     1.554000000    -2.579000000
O     1.825000000    -0.295000000    -3.220000000
