17
-86.58648
C     0.870000000    -0.151000000    -1.251000000
H     1.289000000    -0.234000000    -2.251000000
C    -0.097000000    -1.020000000    -0.784000000
H    -0.402000000    -1.813000000    -1.463000000
C    -0.728000000    -0.911000000     0.406000000
C    -2.078000000    -1.606000000     0.571000000
H    -1.894000000    -2.682000000     0.579000000
H    -2.471000000    -1.412000000     1.571000000
H    -2.909000000    -1.331000000    -0.082000000
C    -0.431000000     0.147000000     1.214000000
H    -1.019000000     0.203000000     2.126000000
C     0.571000000     1.037000000     0.840000000
H     0.664000000     1.867000000     1.536000000
C     1.275000000     0.900000000    -0.395000000
C     2.167000000     2.022000000    -0.757000000
O     2.432000000     2.955000000    -0.013000000
O     2.760000000     2.022000000    -1.849000000
