17
-95.17978
C     0.473000000     0.442000000    -1.301000000
H     0.746000000     0.889000000    -2.254000000
C    -0.868000000     0.288000000    -0.974000000
H    -1.624000000     0.458000000    -1.737000000
C    -1.226000000    -0.083000000     0.329000000
C    -2.595000000    -0.383000000     0.684000000
H    -3.048000000     0.548000000     1.031000000
H    -3.161000000    -0.885000000    -0.104000000
H    -2.562000000    -1.098000000     1.509000000
C    -0.218000000    -0.357000000     1.317000000
H    -0.471000000    -0.581000000     2.350000000
C     1.134000000    -0.190000000     0.939000000
H     1.973000000    -0.278000000     1.625000000
C     1.485000000     0.154000000    -0.407000000
C     2.924000000     0.370000000    -0.889000000
O     3.810000000     0.316000000    -0.055000000
O     3.220000000     0.388000000    -2.061000000
