17
-98.53598
C     0.478000000    -0.936000000    -0.996000000
H     0.772000000    -1.783000000    -1.610000000
C    -0.156000000    -1.290000000     0.208000000
H    -0.183000000    -2.365000000     0.369000000
C    -0.664000000    -0.284000000     1.041000000
C    -1.382000000    -0.606000000     2.281000000
H    -1.281000000     0.159000000     3.054000000
H    -2.437000000    -0.827000000     2.103000000
H    -0.877000000    -1.437000000     2.777000000
C    -0.458000000     1.058000000     0.642000000
H    -0.841000000     1.849000000     1.282000000
C     0.344000000     1.385000000    -0.510000000
H     0.585000000     2.440000000    -0.613000000
C     0.751000000     0.387000000    -1.365000000
C     1.549000000     0.696000000    -2.560000000
O     1.792000000     1.834000000    -2.890000000
O     2.005000000    -0.279000000    -3.209000000
