17
-100.68072
C     0.702000000    -1.159000000    -0.613000000
H     1.111000000    -2.080000000    -1.019000000
C    -0.269000000    -1.200000000     0.376000000
H    -0.711000000    -2.167000000     0.602000000
C    -0.802000000    -0.088000000     0.983000000
C    -1.911000000    -0.227000000     1.928000000
H    -2.107000000     0.710000000     2.454000000
H    -2.766000000    -0.538000000     1.324000000
H    -1.764000000    -0.982000000     2.703000000
C    -0.268000000     1.171000000     0.579000000
H    -0.728000000     2.079000000     0.960000000
C     0.666000000     1.246000000    -0.442000000
H     1.032000000     2.217000000    -0.766000000
C     1.136000000     0.091000000    -1.080000000
C     2.002000000     0.261000000    -2.329000000
O     2.212000000     1.381000000    -2.808000000
O     2.471000000    -0.723000000    -2.848000000
