17
-95.83556
C     1.192000000    -0.539000000     0.743000000
H     2.011000000    -1.101000000     1.185000000
C    -0.170000000    -0.983000000     0.899000000
H    -0.454000000    -1.875000000     1.453000000
C    -1.184000000    -0.356000000     0.166000000
C    -2.636000000    -0.806000000     0.244000000
H    -3.359000000    -0.056000000     0.571000000
H    -3.026000000    -1.083000000    -0.738000000
H    -2.670000000    -1.691000000     0.883000000
C    -0.804000000     0.598000000    -0.769000000
H    -1.545000000     1.037000000    -1.432000000
C     0.530000000     1.084000000    -0.907000000
H     0.640000000     1.756000000    -1.754000000
C     1.516000000     0.511000000    -0.045000000
C     2.954000000     0.986000000    -0.154000000
O     3.157000000     1.934000000    -0.925000000
O     3.849000000     0.578000000     0.578000000
