17
-96.98677
C     1.480000000    -0.003000000     0.137000000
H     2.556000000    -0.140000000     0.060000000
C     0.633000000    -1.116000000     0.159000000
H     1.164000000    -2.063000000     0.202000000
C    -0.708000000    -1.004000000     0.040000000
C    -1.632000000    -2.250000000     0.146000000
H    -1.316000000    -3.088000000    -0.478000000
H    -1.486000000    -2.558000000     1.184000000
H    -2.675000000    -1.937000000     0.068000000
C    -1.285000000     0.273000000    -0.088000000
H    -2.342000000     0.329000000    -0.333000000
C    -0.433000000     1.388000000    -0.161000000
H    -0.931000000     2.332000000    -0.367000000
C     0.950000000     1.268000000    -0.100000000
C     1.770000000     2.525000000    -0.132000000
O     1.323000000     3.593000000    -0.574000000
O     2.931000000     2.446000000     0.233000000
