17
-83.05217
C     0.849000000    -0.644000000     1.099000000
H     1.384000000    -1.028000000     1.964000000
C    -0.438000000    -1.047000000     0.662000000
H    -0.979000000    -1.893000000     1.078000000
C    -1.148000000    -0.439000000    -0.272000000
C    -2.351000000    -0.998000000    -0.992000000
H    -3.208000000    -0.819000000    -0.340000000
H    -2.513000000    -0.576000000    -1.986000000
H    -2.159000000    -2.058000000    -1.170000000
C    -0.661000000     0.733000000    -0.779000000
H    -1.161000000     1.255000000    -1.591000000
C     0.649000000     1.096000000    -0.464000000
H     1.069000000     1.964000000    -0.966000000
C     1.413000000     0.470000000     0.530000000
C     2.692000000     1.145000000     0.986000000
O     3.094000000     2.198000000     0.473000000
O     3.472000000     0.643000000     1.764000000
