17
-86.93583
C     0.025000000    -0.273000000     1.528000000
H    -0.123000000    -0.425000000     2.594000000
C    -1.024000000    -0.636000000     0.614000000
H    -1.931000000    -1.121000000     0.964000000
C    -0.828000000    -0.442000000    -0.747000000
C    -1.789000000    -0.925000000    -1.821000000
H    -1.408000000    -1.875000000    -2.201000000
H    -2.824000000    -1.000000000    -1.481000000
H    -1.801000000    -0.329000000    -2.736000000
C     0.258000000     0.282000000    -1.224000000
H     0.433000000     0.337000000    -2.295000000
C     1.181000000     0.740000000    -0.326000000
H     1.976000000     1.417000000    -0.627000000
C     1.102000000     0.420000000     1.047000000
C     2.129000000     1.037000000     1.942000000
O     2.353000000     2.236000000     1.766000000
O     2.263000000     0.550000000     3.001000000
