17
-82.70321
C     0.420000000    -0.013000000     1.362000000
H     0.650000000    -0.031000000     2.425000000
C    -0.649000000    -0.791000000     0.870000000
H    -1.060000000    -1.497000000     1.587000000
C    -0.885000000    -0.702000000    -0.483000000
C    -1.943000000    -1.602000000    -1.098000000
H    -2.289000000    -1.211000000    -2.058000000
H    -1.583000000    -2.631000000    -1.157000000
H    -2.758000000    -1.599000000    -0.371000000
C    -0.104000000     0.106000000    -1.297000000
H    -0.297000000     0.230000000    -2.359000000
C     0.880000000     0.914000000    -0.805000000
H     1.421000000     1.556000000    -1.496000000
C     1.104000000     0.932000000     0.543000000
C     2.147000000     1.820000000     1.241000000
O     2.651000000     2.734000000     0.683000000
O     2.292000000     1.781000000     2.408000000
