17
-87.91826
C    -0.729000000     0.430000000     1.217000000
H    -1.385000000     0.764000000     2.016000000
C    -1.342000000     0.097000000     0.010000000
H    -2.408000000     0.203000000    -0.172000000
C    -0.533000000    -0.321000000    -1.070000000
C    -1.122000000    -0.674000000    -2.355000000
H    -0.472000000    -1.287000000    -2.983000000
H    -2.001000000    -1.270000000    -2.101000000
H    -1.468000000     0.151000000    -2.982000000
C     0.801000000    -0.505000000    -0.858000000
H     1.462000000    -0.867000000    -1.641000000
C     1.424000000    -0.037000000     0.303000000
H     2.473000000    -0.263000000     0.480000000
C     0.667000000     0.417000000     1.356000000
C     1.337000000     0.883000000     2.634000000
O     2.482000000     1.231000000     2.481000000
O     0.812000000     1.042000000     3.659000000
