17
-95.25988
C     0.238000000     0.072000000     1.414000000
H     0.304000000     0.171000000     2.495000000
C    -0.829000000    -0.548000000     0.830000000
H    -1.616000000    -1.017000000     1.416000000
C    -0.968000000    -0.589000000    -0.561000000
C    -2.153000000    -1.179000000    -1.208000000
H    -1.906000000    -1.361000000    -2.256000000
H    -2.397000000    -2.080000000    -0.642000000
H    -3.034000000    -0.544000000    -1.094000000
C     0.104000000    -0.033000000    -1.338000000
H    -0.092000000    -0.019000000    -2.407000000
C     1.158000000     0.633000000    -0.718000000
H     1.974000000     1.104000000    -1.259000000
C     1.268000000     0.625000000     0.674000000
C     2.399000000     1.312000000     1.377000000
O     3.167000000     1.937000000     0.693000000
O     2.386000000     1.520000000     2.591000000
