17
-84.38210
C    -1.012000000    -1.148000000     0.304000000
H    -1.584000000    -2.065000000     0.422000000
C     0.409000000    -1.273000000     0.165000000
H     0.850000000    -2.266000000     0.183000000
C     1.203000000    -0.171000000    -0.132000000
C     2.733000000    -0.232000000    -0.360000000
H     3.099000000    -0.671000000     0.570000000
H     2.855000000    -0.832000000    -1.265000000
H     3.209000000     0.746000000    -0.456000000
C     0.622000000     1.034000000    -0.162000000
H     1.311000000     1.863000000    -0.301000000
C    -0.757000000     1.283000000    -0.059000000
H    -1.127000000     2.299000000    -0.170000000
C    -1.561000000     0.111000000     0.234000000
C    -3.018000000     0.408000000     0.317000000
O    -3.498000000     1.478000000     0.482000000
O    -3.732000000    -0.556000000     0.236000000
