17
-99.24342
C     0.213000000     0.503000000     1.402000000
H     0.315000000     0.718000000     2.463000000
C    -0.543000000    -0.599000000     1.015000000
H    -1.049000000    -1.173000000     1.787000000
C    -0.785000000    -0.957000000    -0.280000000
C    -1.617000000    -2.126000000    -0.706000000
H    -1.536000000    -3.001000000    -0.058000000
H    -2.668000000    -1.858000000    -0.584000000
H    -1.381000000    -2.386000000    -1.740000000
C    -0.076000000    -0.232000000    -1.305000000
H    -0.028000000    -0.541000000    -2.346000000
C     0.726000000     0.825000000    -0.887000000
H     1.230000000     1.396000000    -1.662000000
C     0.937000000     1.207000000     0.417000000
C     1.855000000     2.438000000     0.745000000
O     2.773000000     2.659000000    -0.006000000
O     1.640000000     3.133000000     1.746000000
