17
-86.91467
C    -0.157000000     0.548000000     1.336000000
H    -0.520000000     0.978000000     2.266000000
C    -0.997000000    -0.291000000     0.616000000
H    -2.001000000    -0.467000000     0.994000000
C    -0.727000000    -0.797000000    -0.615000000
C    -1.841000000    -1.495000000    -1.512000000
H    -1.462000000    -2.481000000    -1.788000000
H    -2.773000000    -1.680000000    -0.974000000
H    -2.109000000    -0.933000000    -2.409000000
C     0.470000000    -0.397000000    -1.125000000
H     0.741000000    -0.706000000    -2.131000000
C     1.463000000     0.277000000    -0.390000000
H     2.376000000     0.607000000    -0.880000000
C     1.067000000     0.794000000     0.862000000
C     1.909000000     1.738000000     1.659000000
O     3.132000000     1.888000000     1.489000000
O     1.424000000     2.410000000     2.605000000
