17
-95.75840
C    -0.475000000     1.125000000    -0.867000000
H    -0.865000000     1.729000000    -1.682000000
C     0.668000000     0.409000000    -1.132000000
H     1.123000000     0.419000000    -2.120000000
C     1.012000000    -0.651000000    -0.223000000
C     2.076000000    -1.704000000    -0.535000000
H     2.504000000    -2.045000000     0.409000000
H     1.674000000    -2.609000000    -0.995000000
H     2.884000000    -1.260000000    -1.120000000
C     0.339000000    -0.797000000     0.993000000
H     0.638000000    -1.627000000     1.629000000
C    -0.775000000     0.033000000     1.314000000
H    -1.318000000    -0.060000000     2.251000000
C    -1.159000000     0.977000000     0.315000000
C    -2.432000000     1.807000000     0.528000000
O    -2.713000000     2.211000000     1.638000000
O    -3.178000000     2.036000000    -0.398000000
