17
-91.22041
C    -0.263000000     0.796000000    -1.234000000
H    -0.453000000     1.167000000    -2.238000000
C     0.681000000    -0.187000000    -1.068000000
H     1.389000000    -0.486000000    -1.837000000
C     0.915000000    -0.849000000     0.161000000
C     1.895000000    -1.998000000     0.314000000
H     2.067000000    -2.187000000     1.376000000
H     1.510000000    -2.940000000    -0.082000000
H     2.817000000    -1.842000000    -0.251000000
C     0.102000000    -0.443000000     1.172000000
H     0.243000000    -0.947000000     2.125000000
C    -0.838000000     0.589000000     1.116000000
H    -1.493000000     0.925000000     1.916000000
C    -1.056000000     1.130000000    -0.173000000
C    -2.211000000     2.116000000    -0.353000000
O    -2.855000000     2.607000000     0.539000000
O    -2.457000000     2.548000000    -1.476000000
