17
-87.67087
C    -1.251000000    -0.103000000    -0.821000000
H    -2.030000000    -0.083000000    -1.579000000
C     0.022000000    -0.141000000    -1.276000000
H     0.238000000    -0.120000000    -2.341000000
C     1.069000000    -0.221000000    -0.382000000
C     2.499000000    -0.403000000    -0.967000000
H     3.309000000    -0.723000000    -0.308000000
H     2.444000000    -0.859000000    -1.958000000
H     2.791000000     0.608000000    -1.262000000
C     0.945000000    -0.202000000     1.000000000
H     1.748000000    -0.275000000     1.730000000
C    -0.383000000     0.140000000     1.438000000
H    -0.457000000     0.431000000     2.482000000
C    -1.488000000     0.114000000     0.565000000
C    -2.810000000     0.496000000     1.063000000
O    -2.902000000     0.725000000     2.269000000
O    -3.746000000     0.615000000     0.342000000
