17
-95.28918
C    -1.236000000    -0.539000000    -0.651000000
H    -2.116000000    -0.738000000    -1.258000000
C     0.044000000    -1.057000000    -0.844000000
H     0.103000000    -1.887000000    -1.542000000
C     1.123000000    -0.460000000    -0.168000000
C     2.592000000    -0.726000000    -0.564000000
H     3.019000000     0.229000000    -0.876000000
H     3.153000000    -1.152000000     0.270000000
H     2.644000000    -1.304000000    -1.490000000
C     0.922000000     0.511000000     0.811000000
H     1.770000000     0.949000000     1.331000000
C    -0.419000000     0.818000000     1.150000000
H    -0.567000000     1.496000000     1.987000000
C    -1.466000000     0.385000000     0.319000000
C    -2.824000000     0.997000000     0.477000000
O    -3.016000000     2.024000000     1.136000000
O    -3.728000000     0.458000000    -0.095000000
