17
-85.49904
C    -0.740000000     0.914000000    -0.961000000
H    -1.237000000     1.454000000    -1.763000000
C     0.426000000     0.195000000    -1.189000000
H     0.899000000     0.204000000    -2.168000000
C     1.019000000    -0.647000000    -0.227000000
C     2.232000000    -1.452000000    -0.781000000
H     1.876000000    -2.477000000    -0.660000000
H     2.704000000    -1.234000000    -1.742000000
H     2.934000000    -1.250000000     0.031000000
C     0.496000000    -0.650000000     1.040000000
H     1.075000000    -1.166000000     1.802000000
C    -0.668000000     0.042000000     1.333000000
H    -1.076000000    -0.012000000     2.339000000
C    -1.280000000     0.836000000     0.337000000
C    -2.517000000     1.568000000     0.748000000
O    -2.761000000     1.826000000     1.899000000
O    -3.388000000     1.849000000    -0.039000000
