17
-85.93800
C    -1.296000000    -0.123000000    -0.778000000
H    -2.148000000    -0.293000000    -1.432000000
C    -0.065000000    -0.792000000    -1.035000000
H    -0.124000000    -1.552000000    -1.809000000
C     1.070000000    -0.557000000    -0.238000000
C     2.356000000    -1.260000000    -0.626000000
H     2.582000000    -2.196000000    -0.112000000
H     2.330000000    -1.461000000    -1.699000000
H     3.251000000    -0.704000000    -0.340000000
C     0.977000000     0.205000000     0.878000000
H     1.868000000     0.497000000     1.428000000
C    -0.203000000     0.888000000     1.097000000
H    -0.255000000     1.472000000     2.013000000
C    -1.347000000     0.725000000     0.347000000
C    -2.590000000     1.504000000     0.641000000
O    -2.743000000     2.274000000     1.606000000
O    -3.666000000     1.378000000     0.060000000
