17
-92.23424
C    -0.149000000    -0.830000000    -1.171000000
H    -0.024000000    -1.442000000    -2.061000000
C     1.072000000    -0.574000000    -0.458000000
H     2.014000000    -0.933000000    -0.863000000
C     1.026000000     0.227000000     0.695000000
C     2.359000000     0.702000000     1.327000000
H     3.227000000     0.258000000     0.835000000
H     2.576000000     1.773000000     1.313000000
H     2.362000000     0.340000000     2.358000000
C    -0.184000000     0.636000000     1.135000000
H    -0.311000000     1.204000000     2.054000000
C    -1.386000000     0.361000000     0.407000000
H    -2.305000000     0.588000000     0.943000000
C    -1.383000000    -0.364000000    -0.783000000
C    -2.642000000    -0.631000000    -1.620000000
O    -3.723000000    -0.140000000    -1.376000000
O    -2.534000000    -1.177000000    -2.733000000
