17
-86.02478
C     0.124000000     1.450000000    -0.189000000
H     0.407000000     2.408000000    -0.618000000
C     1.165000000     0.580000000    -0.033000000
H     2.172000000     0.986000000    -0.096000000
C     0.989000000    -0.784000000     0.146000000
C     2.130000000    -1.708000000     0.489000000
H     1.792000000    -2.290000000     1.349000000
H     2.272000000    -2.421000000    -0.325000000
H     3.029000000    -1.138000000     0.735000000
C    -0.357000000    -1.222000000     0.001000000
H    -0.521000000    -2.295000000     0.058000000
C    -1.416000000    -0.346000000    -0.099000000
H    -2.369000000    -0.848000000    -0.240000000
C    -1.254000000     1.020000000    -0.227000000
C    -2.422000000     1.935000000    -0.329000000
O    -3.527000000     1.549000000    -0.205000000
O    -2.213000000     3.123000000    -0.416000000
