17
-93.36038
C     0.102000000     1.289000000    -0.734000000
H     0.274000000     2.126000000    -1.405000000
C     1.128000000     0.351000000    -0.484000000
H     2.118000000     0.404000000    -0.929000000
C     0.949000000    -0.717000000     0.363000000
C     2.017000000    -1.683000000     0.584000000
H     2.650000000    -1.708000000    -0.305000000
H     2.599000000    -1.202000000     1.373000000
H     1.750000000    -2.692000000     0.906000000
C    -0.346000000    -1.028000000     0.774000000
H    -0.532000000    -1.914000000     1.376000000
C    -1.354000000    -0.186000000     0.464000000
H    -2.384000000    -0.435000000     0.707000000
C    -1.175000000     1.005000000    -0.257000000
C    -2.324000000     1.900000000    -0.733000000
O    -3.412000000     1.635000000    -0.313000000
O    -2.052000000     2.863000000    -1.386000000
