17
-83.07056
C    -0.325000000     0.917000000     1.120000000
H    -0.744000000     1.484000000     1.947000000
C    -0.521000000    -0.472000000     1.066000000
H    -1.021000000    -0.915000000     1.924000000
C    -0.195000000    -1.182000000    -0.084000000
C    -0.496000000    -2.682000000    -0.143000000
H    -0.180000000    -3.190000000    -1.056000000
H    -0.121000000    -3.175000000     0.756000000
H    -1.581000000    -2.787000000    -0.077000000
C     0.420000000    -0.585000000    -1.152000000
H     0.639000000    -1.199000000    -2.022000000
C     0.677000000     0.757000000    -1.025000000
H     1.230000000     1.181000000    -1.860000000
C     0.375000000     1.526000000     0.121000000
C     0.526000000     3.033000000     0.169000000
O     0.587000000     3.670000000    -0.846000000
O     0.726000000     3.618000000     1.155000000
