17
-96.40641
C     1.014000000     0.985000000     0.317000000
H     1.784000000     1.707000000     0.580000000
C     1.138000000    -0.346000000     0.644000000
H     2.071000000    -0.721000000     1.056000000
C     0.104000000    -1.193000000     0.325000000
C     0.212000000    -2.613000000     0.720000000
H     0.987000000    -3.107000000     0.130000000
H     0.412000000    -2.632000000     1.793000000
H    -0.748000000    -3.121000000     0.608000000
C    -1.006000000    -0.753000000    -0.409000000
H    -1.770000000    -1.503000000    -0.600000000
C    -1.139000000     0.618000000    -0.742000000
H    -1.859000000     0.930000000    -1.494000000
C    -0.069000000     1.561000000    -0.417000000
C    -0.312000000     3.012000000    -0.724000000
O    -1.374000000     3.327000000    -1.287000000
O     0.561000000     3.844000000    -0.500000000
