17
-85.21974
C     0.070000000     1.145000000     0.927000000
H    -0.043000000     1.910000000     1.691000000
C    -0.246000000    -0.121000000     1.298000000
H    -0.377000000    -0.256000000     2.368000000
C    -0.281000000    -1.152000000     0.327000000
C    -0.591000000    -2.589000000     0.709000000
H     0.054000000    -3.254000000     0.131000000
H    -0.525000000    -2.778000000     1.783000000
H    -1.653000000    -2.738000000     0.504000000
C    -0.139000000    -0.794000000    -1.018000000
H    -0.124000000    -1.633000000    -1.708000000
C     0.177000000     0.494000000    -1.344000000
H     0.412000000     0.725000000    -2.380000000
C     0.361000000     1.470000000    -0.357000000
C     0.803000000     2.807000000    -0.855000000
O     0.965000000     3.093000000    -1.997000000
O     1.136000000     3.674000000    -0.073000000
