17
-97.01320
C    -0.586000000     1.269000000    -0.456000000
H    -1.062000000     2.230000000    -0.635000000
C    -0.811000000     0.638000000     0.757000000
H    -1.389000000     1.171000000     1.507000000
C    -0.289000000    -0.633000000     1.000000000
C    -0.560000000    -1.223000000     2.394000000
H    -0.065000000    -0.581000000     3.126000000
H    -1.624000000    -1.257000000     2.639000000
H    -0.278000000    -2.276000000     2.466000000
C     0.492000000    -1.247000000    -0.001000000
H     1.009000000    -2.176000000     0.226000000
C     0.884000000    -0.549000000    -1.120000000
H     1.560000000    -1.005000000    -1.839000000
C     0.314000000     0.732000000    -1.377000000
C     0.642000000     1.423000000    -2.597000000
O     1.246000000     0.824000000    -3.473000000
O     0.512000000     2.654000000    -2.620000000
