17
-98.08720
C     0.308000000     0.156000000    -1.423000000
H     0.408000000     0.396000000    -2.478000000
C    -0.726000000     0.822000000    -0.723000000
H    -1.426000000     1.372000000    -1.347000000
C    -0.883000000     0.614000000     0.609000000
C    -2.025000000     1.250000000     1.390000000
H    -2.007000000     2.325000000     1.203000000
H    -2.937000000     0.918000000     0.888000000
H    -2.116000000     0.930000000     2.431000000
C     0.118000000    -0.083000000     1.334000000
H    -0.079000000    -0.277000000     2.385000000
C     1.045000000    -0.855000000     0.627000000
H     1.659000000    -1.572000000     1.166000000
C     1.204000000    -0.721000000    -0.800000000
C     2.185000000    -1.538000000    -1.555000000
O     2.788000000    -2.511000000    -0.975000000
O     2.479000000    -1.219000000    -2.727000000
