17
-99.81195
C     0.232000000     1.095000000    -1.008000000
H     0.248000000     1.936000000    -1.696000000
C    -0.540000000     1.188000000     0.205000000
H    -0.885000000     2.194000000     0.429000000
C    -0.696000000     0.122000000     1.048000000
C    -1.572000000     0.248000000     2.248000000
H    -2.446000000     0.866000000     2.035000000
H    -1.827000000    -0.754000000     2.600000000
H    -0.893000000     0.590000000     3.031000000
C    -0.096000000    -1.099000000     0.725000000
H    -0.243000000    -2.035000000     1.258000000
C     0.791000000    -1.217000000    -0.371000000
H     1.281000000    -2.163000000    -0.586000000
C     0.898000000    -0.109000000    -1.253000000
C     1.680000000    -0.278000000    -2.557000000
O     2.353000000    -1.280000000    -2.768000000
O     1.722000000     0.702000000    -3.332000000
