17
-97.55313
C    -0.462000000    -0.597000000    -1.273000000
H    -0.834000000    -1.106000000    -2.159000000
C     0.812000000    -0.697000000    -0.798000000
H     1.544000000    -1.229000000    -1.401000000
C     1.129000000     0.008000000     0.372000000
C     2.559000000     0.045000000     0.901000000
H     3.197000000    -0.159000000     0.038000000
H     2.809000000     0.997000000     1.373000000
H     2.649000000    -0.718000000     1.677000000
C     0.181000000     0.660000000     1.112000000
H     0.455000000     1.175000000     2.030000000
C    -1.145000000     0.719000000     0.602000000
H    -1.826000000     1.261000000     1.253000000
C    -1.436000000     0.049000000    -0.522000000
C    -2.829000000    -0.089000000    -0.950000000
O    -3.725000000     0.384000000    -0.255000000
O    -3.086000000    -0.709000000    -2.002000000
