17
-89.87298
C    -0.302000000     0.879000000    -1.158000000
H    -0.438000000     1.690000000    -1.870000000
C    -0.711000000     1.007000000     0.165000000
H    -1.295000000     1.891000000     0.405000000
C    -0.372000000     0.143000000     1.131000000
C    -0.957000000     0.501000000     2.502000000
H    -0.715000000     1.556000000     2.652000000
H    -2.032000000     0.357000000     2.378000000
H    -0.551000000    -0.105000000     3.315000000
C     0.258000000    -1.081000000     0.816000000
H     0.367000000    -1.852000000     1.574000000
C     0.697000000    -1.236000000    -0.483000000
H     1.198000000    -2.183000000    -0.667000000
C     0.571000000    -0.202000000    -1.396000000
C     1.291000000    -0.356000000    -2.747000000
O     2.056000000    -1.289000000    -2.903000000
O     0.941000000     0.284000000    -3.711000000
