17
-91.59371
C     0.520000000    -0.770000000    -1.196000000
H     0.858000000    -1.263000000    -2.104000000
C    -0.589000000     0.110000000    -1.195000000
H    -1.165000000     0.235000000    -2.109000000
C    -0.876000000     0.786000000    -0.069000000
C    -2.086000000     1.759000000    -0.010000000
H    -1.878000000     2.423000000     0.832000000
H    -2.116000000     2.358000000    -0.922000000
H    -2.994000000     1.248000000     0.315000000
C    -0.272000000     0.552000000     1.133000000
H    -0.555000000     1.051000000     2.056000000
C     0.807000000    -0.348000000     1.116000000
H     1.211000000    -0.531000000     2.108000000
C     1.192000000    -1.008000000    -0.044000000
C     2.341000000    -1.925000000    -0.001000000
O     2.802000000    -2.232000000     1.083000000
O     2.799000000    -2.440000000    -1.000000000
