17
-96.39173
C     0.734000000    -1.193000000     0.469000000
H     1.142000000    -2.045000000     1.007000000
C    -0.519000000    -1.183000000    -0.165000000
H    -0.997000000    -2.157000000    -0.238000000
C    -1.040000000    -0.019000000    -0.695000000
C    -2.299000000    -0.055000000    -1.442000000
H    -2.530000000     0.957000000    -1.782000000
H    -2.337000000    -0.764000000    -2.272000000
H    -3.080000000    -0.199000000    -0.693000000
C    -0.344000000     1.167000000    -0.483000000
H    -0.758000000     2.112000000    -0.824000000
C     0.773000000     1.154000000     0.303000000
H     1.205000000     2.126000000     0.528000000
C     1.309000000     0.010000000     0.867000000
C     2.570000000     0.032000000     1.672000000
O     3.060000000     1.121000000     1.942000000
O     3.104000000    -1.065000000     1.804000000
