17
-95.14069
C    -0.152000000    -1.321000000    -0.636000000
H    -0.131000000    -2.221000000    -1.246000000
C    -0.343000000    -0.066000000    -1.212000000
H    -0.538000000    -0.028000000    -2.280000000
C    -0.249000000     1.094000000    -0.511000000
C    -0.476000000     2.366000000    -1.252000000
H     0.220000000     2.481000000    -2.086000000
H    -1.484000000     2.472000000    -1.658000000
H    -0.369000000     3.273000000    -0.654000000
C     0.095000000     1.062000000     0.848000000
H     0.196000000     2.013000000     1.365000000
C     0.363000000    -0.227000000     1.449000000
H     0.699000000    -0.291000000     2.481000000
C     0.248000000    -1.416000000     0.732000000
C     0.550000000    -2.687000000     1.393000000
O     1.069000000    -2.743000000     2.463000000
O     0.304000000    -3.762000000     0.805000000
