17
-89.97704
C     0.730000000    -1.274000000    -0.206000000
H     1.001000000    -2.307000000    -0.411000000
C    -0.583000000    -0.943000000    -0.517000000
H    -1.178000000    -1.716000000    -0.996000000
C    -1.170000000     0.264000000    -0.305000000
C    -2.544000000     0.535000000    -0.863000000
H    -2.867000000     1.553000000    -0.636000000
H    -2.532000000     0.335000000    -1.936000000
H    -3.330000000    -0.014000000    -0.341000000
C    -0.324000000     1.330000000     0.128000000
H    -0.743000000     2.311000000     0.340000000
C     0.982000000     0.994000000     0.544000000
H     1.589000000     1.730000000     1.067000000
C     1.465000000    -0.331000000     0.459000000
C     2.881000000    -0.684000000     0.970000000
O     3.306000000     0.031000000     1.859000000
O     3.309000000    -1.811000000     0.846000000
