17
-85.89560
C     0.601000000    -1.321000000    -0.181000000
H     0.781000000    -2.391000000    -0.230000000
C    -0.274000000    -0.689000000    -1.088000000
H    -0.662000000    -1.221000000    -1.953000000
C    -0.711000000     0.627000000    -0.838000000
C    -1.678000000     1.375000000    -1.751000000
H    -1.802000000     0.816000000    -2.681000000
H    -2.690000000     1.285000000    -1.352000000
H    -1.437000000     2.436000000    -1.845000000
C    -0.207000000     1.220000000     0.289000000
H    -0.525000000     2.232000000     0.526000000
C     0.605000000     0.594000000     1.260000000
H     0.856000000     1.103000000     2.187000000
C     0.988000000    -0.739000000     1.018000000
C     1.795000000    -1.582000000     2.013000000
O     1.893000000    -1.215000000     3.076000000
O     2.473000000    -2.532000000     1.552000000
