17
-92.27830
C     0.649000000    -1.211000000     0.472000000
H     0.994000000    -2.236000000     0.580000000
C    -0.727000000    -1.083000000     0.160000000
H    -1.420000000    -1.884000000    -0.083000000
C    -1.163000000     0.144000000    -0.189000000
C    -2.646000000     0.204000000    -0.629000000
H    -2.952000000     1.192000000    -0.977000000
H    -2.889000000    -0.427000000    -1.486000000
H    -3.244000000     0.097000000     0.279000000
C    -0.339000000     1.282000000    -0.105000000
H    -0.776000000     2.259000000    -0.295000000
C     1.046000000     1.123000000     0.105000000
H     1.632000000     2.034000000     0.201000000
C     1.541000000    -0.170000000     0.401000000
C     3.060000000    -0.398000000     0.507000000
O     3.750000000     0.588000000     0.505000000
O     3.485000000    -1.518000000     0.562000000
