17
-97.80013
C     1.027000000    -1.058000000    -0.013000000
H     1.756000000    -1.861000000     0.066000000
C    -0.383000000    -1.233000000    -0.164000000
H    -0.738000000    -2.255000000    -0.271000000
C    -1.265000000    -0.173000000    -0.179000000
C    -2.755000000    -0.405000000    -0.090000000
H    -3.320000000     0.529000000    -0.113000000
H    -3.031000000    -0.947000000    -0.997000000
H    -2.837000000    -0.964000000     0.844000000
C    -0.674000000     1.085000000    -0.026000000
H    -1.372000000     1.918000000    -0.006000000
C     0.652000000     1.334000000    -0.019000000
H     1.120000000     2.313000000     0.046000000
C     1.574000000     0.238000000     0.057000000
C     3.044000000     0.438000000     0.279000000
O     3.468000000     1.595000000     0.262000000
O     3.731000000    -0.555000000     0.323000000
