17
-98.93551
C     0.755000000    -1.184000000     0.215000000
H     1.237000000    -2.155000000     0.286000000
C    -0.615000000    -1.144000000     0.209000000
H    -1.197000000    -2.061000000     0.193000000
C    -1.226000000     0.085000000     0.025000000
C    -2.759000000     0.154000000    -0.124000000
H    -3.207000000    -0.817000000     0.092000000
H    -3.083000000     0.864000000     0.640000000
H    -3.079000000     0.533000000    -1.097000000
C    -0.460000000     1.206000000    -0.107000000
H    -0.987000000     2.144000000    -0.268000000
C     0.978000000     1.187000000    -0.016000000
H     1.480000000     2.150000000    -0.049000000
C     1.582000000    -0.051000000     0.082000000
C     3.128000000    -0.228000000    -0.008000000
O     3.878000000     0.704000000    -0.129000000
O     3.568000000    -1.380000000     0.059000000
