17
-95.04554
C     0.292000000    -1.423000000    -0.332000000
H     0.480000000    -2.467000000    -0.568000000
C    -0.882000000    -0.735000000    -0.715000000
H    -1.662000000    -1.337000000    -1.174000000
C    -1.008000000     0.553000000    -0.328000000
C    -2.233000000     1.375000000    -0.686000000
H    -2.834000000     0.982000000    -1.508000000
H    -2.882000000     1.477000000     0.187000000
H    -1.954000000     2.358000000    -1.072000000
C     0.002000000     1.287000000     0.245000000
H    -0.219000000     2.342000000     0.387000000
C     1.132000000     0.580000000     0.721000000
H     2.004000000     1.060000000     1.156000000
C     1.280000000    -0.777000000     0.457000000
C     2.499000000    -1.550000000     0.922000000
O     3.364000000    -1.008000000     1.635000000
O     2.613000000    -2.716000000     0.670000000
