17
-89.21970
C     0.445000000    -1.339000000    -0.295000000
H     0.696000000    -2.336000000    -0.649000000
C    -0.788000000    -0.860000000    -0.621000000
H    -1.379000000    -1.513000000    -1.258000000
C    -1.105000000     0.495000000    -0.343000000
C    -2.415000000     1.044000000    -0.819000000
H    -2.745000000     0.610000000    -1.765000000
H    -3.226000000     0.814000000    -0.126000000
H    -2.399000000     2.122000000    -0.994000000
C    -0.137000000     1.238000000     0.370000000
H    -0.400000000     2.273000000     0.569000000
C     1.064000000     0.731000000     0.827000000
H     1.641000000     1.372000000     1.488000000
C     1.388000000    -0.596000000     0.489000000
C     2.735000000    -1.201000000     0.949000000
O     3.521000000    -0.615000000     1.651000000
O     3.112000000    -2.245000000     0.524000000
