17
-96.53379
C     0.739000000    -1.118000000    -0.600000000
H     1.225000000    -1.965000000    -1.078000000
C    -0.645000000    -1.084000000    -0.458000000
H    -1.248000000    -1.812000000    -0.994000000
C    -1.227000000     0.001000000     0.220000000
C    -2.703000000     0.153000000     0.331000000
H    -3.093000000     0.809000000     1.113000000
H    -3.007000000     0.560000000    -0.635000000
H    -3.184000000    -0.827000000     0.334000000
C    -0.431000000     1.076000000     0.732000000
H    -0.920000000     1.986000000     1.071000000
C     0.954000000     1.015000000     0.511000000
H     1.540000000     1.842000000     0.904000000
C     1.561000000    -0.124000000    -0.106000000
C     3.067000000    -0.144000000    -0.361000000
O     3.837000000     0.686000000     0.057000000
O     3.537000000    -1.047000000    -1.048000000
