17
-82.47859
C     0.369000000    -1.379000000    -0.361000000
H     0.500000000    -2.421000000    -0.642000000
C    -0.926000000    -0.924000000    -0.070000000
H    -1.715000000    -1.671000000    -0.109000000
C    -1.063000000     0.370000000     0.333000000
C    -2.481000000     0.834000000     0.577000000
H    -3.056000000    -0.073000000     0.779000000
H    -2.526000000     1.400000000     1.510000000
H    -2.887000000     1.351000000    -0.294000000
C    -0.048000000     1.270000000     0.432000000
H    -0.215000000     2.270000000     0.826000000
C     1.210000000     0.824000000     0.014000000
H     1.917000000     1.648000000    -0.041000000
C     1.443000000    -0.471000000    -0.309000000
C     2.816000000    -0.913000000    -0.667000000
O     3.682000000    -0.138000000    -0.732000000
O     2.972000000    -1.985000000    -1.239000000
