17
-94.35627
C     0.847000000    -0.470000000    -1.133000000
H     1.436000000    -0.965000000    -1.901000000
C    -0.507000000    -0.769000000    -0.949000000
H    -0.994000000    -1.396000000    -1.691000000
C    -1.187000000    -0.275000000     0.184000000
C    -2.643000000    -0.557000000     0.470000000
H    -3.256000000     0.278000000     0.123000000
H    -3.048000000    -1.255000000    -0.266000000
H    -2.901000000    -0.810000000     1.500000000
C    -0.524000000     0.534000000     1.064000000
H    -1.090000000     0.982000000     1.878000000
C     0.814000000     0.889000000     0.855000000
H     1.267000000     1.695000000     1.428000000
C     1.534000000     0.329000000    -0.234000000
C     3.007000000     0.613000000    -0.450000000
O     3.617000000     1.025000000     0.513000000
O     3.624000000     0.147000000    -1.392000000
