17
-95.58897
C     0.462000000    -0.980000000    -1.021000000
H     0.642000000    -1.758000000    -1.759000000
C    -0.865000000    -0.677000000    -0.623000000
H    -1.659000000    -1.110000000    -1.226000000
C    -1.159000000     0.343000000     0.216000000
C    -2.609000000     0.555000000     0.575000000
H    -3.026000000    -0.354000000     1.012000000
H    -2.640000000     1.292000000     1.380000000
H    -3.171000000     0.840000000    -0.317000000
C    -0.120000000     1.094000000     0.793000000
H    -0.498000000     1.843000000     1.484000000
C     1.208000000     0.617000000     0.677000000
H     2.009000000     1.030000000     1.285000000
C     1.500000000    -0.383000000    -0.271000000
C     2.941000000    -0.708000000    -0.634000000
O     3.814000000    -0.092000000    -0.083000000
O     3.169000000    -1.559000000    -1.492000000
