17
-90.50610
C     0.046000000    -1.050000000    -0.937000000
H     0.018000000    -1.929000000    -1.575000000
C    -1.116000000    -0.485000000    -0.449000000
H    -1.989000000    -0.993000000    -0.851000000
C    -1.033000000     0.593000000     0.393000000
C    -2.298000000     1.314000000     0.780000000
H    -2.996000000     0.587000000     1.199000000
H    -2.113000000     2.071000000     1.544000000
H    -2.742000000     1.740000000    -0.122000000
C     0.225000000     0.903000000     0.896000000
H     0.340000000     1.682000000     1.645000000
C     1.388000000     0.237000000     0.538000000
H     2.315000000     0.400000000     1.082000000
C     1.313000000    -0.657000000    -0.505000000
C     2.555000000    -1.326000000    -1.046000000
O     3.600000000    -0.891000000    -0.721000000
O     2.489000000    -2.197000000    -1.873000000
