17
-87.86705
C    -0.129000000    -0.961000000    -1.039000000
H    -0.330000000    -1.682000000    -1.827000000
C    -1.193000000    -0.610000000    -0.252000000
H    -2.163000000    -1.074000000    -0.410000000
C    -0.906000000     0.300000000     0.733000000
C    -2.085000000     0.802000000     1.529000000
H    -1.918000000     1.671000000     2.168000000
H    -2.946000000     1.108000000     0.931000000
H    -2.361000000    -0.008000000     2.207000000
C     0.416000000     0.759000000     1.036000000
H     0.511000000     1.372000000     1.929000000
C     1.452000000     0.493000000     0.105000000
H     2.481000000     0.782000000     0.303000000
C     1.193000000    -0.416000000    -0.967000000
C     2.324000000    -0.756000000    -1.914000000
O     3.339000000    -0.145000000    -1.781000000
O     2.320000000    -1.633000000    -2.746000000
