17
-100.84674
C     0.662000000    -0.602000000    -1.125000000
H     1.014000000    -0.919000000    -2.103000000
C    -0.712000000    -0.707000000    -0.835000000
H    -1.401000000    -1.299000000    -1.432000000
C    -1.188000000    -0.150000000     0.332000000
C    -2.675000000    -0.096000000     0.522000000
H    -3.127000000    -0.886000000    -0.082000000
H    -2.933000000    -0.073000000     1.583000000
H    -3.010000000     0.866000000     0.129000000
C    -0.308000000     0.540000000     1.157000000
H    -0.674000000     1.046000000     2.047000000
C     1.087000000     0.573000000     0.917000000
H     1.694000000     0.979000000     1.723000000
C     1.567000000     0.002000000    -0.267000000
C     2.969000000     0.162000000    -0.713000000
O     3.717000000     0.947000000    -0.073000000
O     3.312000000    -0.377000000    -1.773000000
