17
-96.74092
C    -0.084000000     1.093000000    -1.045000000
H     0.002000000     1.874000000    -1.796000000
C     0.870000000     0.061000000    -0.998000000
H     1.669000000    -0.007000000    -1.732000000
C     0.810000000    -0.932000000    -0.010000000
C     1.726000000    -2.183000000     0.000000000
H     1.111000000    -3.013000000    -0.355000000
H     2.575000000    -2.006000000    -0.665000000
H     2.115000000    -2.391000000     0.998000000
C    -0.108000000    -0.795000000     1.053000000
H    -0.173000000    -1.627000000     1.749000000
C    -0.946000000     0.309000000     1.051000000
H    -1.663000000     0.484000000     1.849000000
C    -1.011000000     1.225000000    -0.019000000
C    -1.987000000     2.374000000     0.025000000
O    -2.857000000     2.378000000     0.833000000
O    -2.048000000     3.157000000    -0.937000000
