17
-91.70015
C     1.131000000     0.943000000    -0.048000000
H     2.029000000     1.551000000     0.027000000
C     1.159000000    -0.372000000    -0.425000000
H     2.152000000    -0.785000000    -0.580000000
C    -0.016000000    -1.173000000    -0.524000000
C     0.110000000    -2.700000000    -0.612000000
H    -0.369000000    -3.161000000     0.254000000
H    -0.314000000    -3.151000000    -1.512000000
H     1.168000000    -2.969000000    -0.592000000
C    -1.216000000    -0.525000000    -0.256000000
H    -2.119000000    -1.123000000    -0.165000000
C    -1.215000000     0.823000000     0.174000000
H    -2.155000000     1.241000000     0.525000000
C    -0.065000000     1.569000000     0.325000000
C    -0.084000000     2.934000000     0.874000000
O    -1.121000000     3.493000000     1.083000000
O     0.927000000     3.400000000     1.452000000
