17
-88.05929
C     1.255000000     0.582000000     0.347000000
H     2.226000000     0.933000000     0.686000000
C     1.097000000    -0.736000000    -0.164000000
H     1.929000000    -1.436000000    -0.152000000
C    -0.158000000    -1.075000000    -0.569000000
C    -0.343000000    -2.444000000    -0.992000000
H    -0.116000000    -3.023000000    -0.094000000
H    -1.291000000    -2.728000000    -1.454000000
H     0.426000000    -2.758000000    -1.701000000
C    -1.206000000    -0.254000000    -0.449000000
H    -2.195000000    -0.539000000    -0.798000000
C    -1.054000000     1.032000000     0.166000000
H    -1.964000000     1.600000000     0.340000000
C     0.196000000     1.480000000     0.514000000
C     0.330000000     2.769000000     1.235000000
O    -0.599000000     3.346000000     1.680000000
O     1.463000000     3.247000000     1.402000000
