17
-92.52381
C    -0.066000000     1.006000000    -1.114000000
H    -0.012000000     1.614000000    -2.013000000
C     0.886000000    -0.058000000    -0.929000000
H     1.702000000    -0.201000000    -1.633000000
C     0.845000000    -0.939000000     0.102000000
C     1.766000000    -2.113000000     0.223000000
H     2.181000000    -2.427000000    -0.737000000
H     2.661000000    -1.851000000     0.791000000
H     1.230000000    -2.897000000     0.763000000
C    -0.155000000    -0.684000000     1.060000000
H    -0.197000000    -1.385000000     1.890000000
C    -1.146000000     0.259000000     0.884000000
H    -1.989000000     0.345000000     1.564000000
C    -1.101000000     1.156000000    -0.207000000
C    -1.921000000     2.422000000    -0.167000000
O    -2.963000000     2.527000000     0.534000000
O    -1.719000000     3.234000000    -1.011000000
