17
-86.69685
C     0.438000000     1.047000000    -0.925000000
H     0.626000000     1.638000000    -1.818000000
C     1.264000000    -0.004000000    -0.574000000
H     2.173000000    -0.345000000    -1.064000000
C     0.756000000    -0.853000000     0.404000000
C     1.548000000    -2.115000000     0.754000000
H     2.407000000    -1.754000000     1.323000000
H     0.981000000    -2.829000000     1.356000000
H     1.929000000    -2.598000000    -0.148000000
C    -0.470000000    -0.671000000     1.006000000
H    -0.806000000    -1.389000000     1.750000000
C    -1.260000000     0.384000000     0.584000000
H    -2.222000000     0.397000000     1.089000000
C    -0.852000000     1.256000000    -0.419000000
C    -1.869000000     2.282000000    -0.972000000
O    -3.075000000     2.290000000    -0.711000000
O    -1.560000000     3.264000000    -1.633000000
