17
-96.25187
C    -0.582000000    -0.513000000     1.285000000
H    -0.926000000    -0.986000000     2.201000000
C     0.396000000    -1.137000000     0.488000000
H     0.852000000    -2.064000000     0.826000000
C     0.840000000    -0.537000000    -0.687000000
C     1.898000000    -1.268000000    -1.554000000
H     2.260000000    -2.208000000    -1.133000000
H     1.530000000    -1.408000000    -2.573000000
H     2.832000000    -0.706000000    -1.620000000
C     0.275000000     0.644000000    -1.067000000
H     0.658000000     1.099000000    -1.977000000
C    -0.645000000     1.313000000    -0.237000000
H    -1.033000000     2.278000000    -0.556000000
C    -1.119000000     0.686000000     0.932000000
C    -2.083000000     1.435000000     1.722000000
O    -2.426000000     2.576000000     1.407000000
O    -2.726000000     0.795000000     2.538000000
