17
-94.12992
C    -1.305000000    -0.154000000    -0.512000000
H    -2.288000000    -0.247000000    -0.967000000
C    -0.193000000    -0.661000000    -1.068000000
H    -0.376000000    -1.265000000    -1.953000000
C     1.038000000    -0.475000000    -0.497000000
C     2.257000000    -1.125000000    -1.117000000
H     2.154000000    -1.437000000    -2.158000000
H     3.107000000    -0.440000000    -1.080000000
H     2.614000000    -1.955000000    -0.503000000
C     1.098000000     0.368000000     0.632000000
H     2.061000000     0.561000000     1.097000000
C    -0.073000000     0.864000000     1.204000000
H     0.007000000     1.382000000     2.157000000
C    -1.280000000     0.631000000     0.683000000
C    -2.604000000     1.102000000     1.244000000
O    -2.538000000     1.898000000     2.168000000
O    -3.686000000     0.946000000     0.676000000
