17
-100.03521
C    -0.876000000     0.950000000     0.616000000
H    -1.618000000     1.618000000     1.045000000
C    -1.245000000     0.088000000    -0.384000000
H    -2.297000000     0.128000000    -0.653000000
C    -0.368000000    -0.856000000    -0.842000000
C    -0.768000000    -1.779000000    -1.998000000
H    -1.369000000    -2.597000000    -1.595000000
H    -1.365000000    -1.153000000    -2.665000000
H     0.132000000    -2.196000000    -2.455000000
C     0.991000000    -0.806000000    -0.368000000
H     1.709000000    -1.499000000    -0.800000000
C     1.369000000     0.060000000     0.713000000
H     2.373000000     0.031000000     1.128000000
C     0.451000000     0.999000000     1.149000000
C     0.845000000     2.057000000     2.129000000
O     2.057000000     2.191000000     2.355000000
O    -0.018000000     2.770000000     2.629000000
