17
-96.46158
C    -0.805000000     1.127000000     0.562000000
H    -1.408000000     1.934000000     0.971000000
C    -1.232000000     0.293000000    -0.443000000
H    -2.187000000     0.381000000    -0.954000000
C    -0.439000000    -0.762000000    -0.855000000
C    -0.773000000    -1.750000000    -2.019000000
H    -0.358000000    -2.747000000    -1.854000000
H    -1.862000000    -1.820000000    -2.061000000
H    -0.461000000    -1.323000000    -2.974000000
C     0.759000000    -0.999000000    -0.199000000
H     1.403000000    -1.843000000    -0.430000000
C     1.227000000    -0.052000000     0.772000000
H     2.202000000    -0.185000000     1.234000000
C     0.454000000     0.978000000     1.140000000
C     1.018000000     1.980000000     2.132000000
O     2.012000000     1.745000000     2.785000000
O     0.458000000     3.044000000     2.200000000
