17
-99.91437
C     0.473000000     0.294000000    -1.407000000
H     0.860000000     0.339000000    -2.422000000
C     1.135000000    -0.534000000    -0.483000000
H     2.042000000    -1.076000000    -0.737000000
C     0.610000000    -0.737000000     0.793000000
C     1.317000000    -1.527000000     1.846000000
H     1.884000000    -0.922000000     2.557000000
H     0.679000000    -2.218000000     2.399000000
H     1.968000000    -2.257000000     1.360000000
C    -0.570000000    -0.071000000     1.145000000
H    -0.968000000    -0.175000000     2.151000000
C    -1.170000000     0.839000000     0.277000000
H    -1.945000000     1.533000000     0.590000000
C    -0.705000000     0.974000000    -1.058000000
C    -1.604000000     1.708000000    -2.079000000
O    -2.626000000     2.280000000    -1.690000000
O    -1.379000000     1.553000000    -3.248000000
