17
-88.50373
C    -0.917000000     1.173000000     0.026000000
H    -1.568000000     2.019000000    -0.178000000
C    -1.024000000     0.065000000    -0.832000000
H    -1.883000000    -0.068000000    -1.485000000
C    -0.077000000    -0.977000000    -0.809000000
C    -0.263000000    -2.184000000    -1.647000000
H    -0.175000000    -1.911000000    -2.701000000
H     0.538000000    -2.860000000    -1.340000000
H    -1.181000000    -2.729000000    -1.418000000
C     0.925000000    -0.910000000     0.146000000
H     1.656000000    -1.714000000     0.175000000
C     1.056000000     0.181000000     1.048000000
H     1.848000000     0.134000000     1.792000000
C     0.091000000     1.257000000     0.997000000
C     0.280000000     2.550000000     1.814000000
O     1.019000000     2.478000000     2.795000000
O    -0.331000000     3.501000000     1.614000000
