17
-98.62331
C    -1.458000000     0.215000000     0.334000000
H    -2.506000000     0.500000000     0.375000000
C    -0.960000000    -0.616000000    -0.642000000
H    -1.650000000    -1.151000000    -1.290000000
C     0.381000000    -0.770000000    -0.838000000
C     0.954000000    -1.603000000    -1.973000000
H     1.751000000    -1.077000000    -2.503000000
H     1.179000000    -2.601000000    -1.592000000
H     0.184000000    -1.750000000    -2.733000000
C     1.288000000    -0.101000000    -0.057000000
H     2.344000000    -0.096000000    -0.312000000
C     0.824000000     0.663000000     1.002000000
H     1.592000000     1.232000000     1.520000000
C    -0.549000000     0.901000000     1.182000000
C    -0.996000000     1.827000000     2.246000000
O    -0.173000000     2.486000000     2.881000000
O    -2.199000000     1.942000000     2.395000000
