17
-97.86306
C     1.112000000     0.236000000     0.956000000
H     1.879000000     0.364000000     1.716000000
C    -0.262000000     0.280000000     1.284000000
H    -0.643000000     0.449000000     2.288000000
C    -1.185000000     0.072000000     0.298000000
C    -2.657000000     0.022000000     0.584000000
H    -2.852000000     0.158000000     1.650000000
H    -3.304000000     0.757000000     0.100000000
H    -2.939000000    -0.989000000     0.282000000
C    -0.767000000    -0.055000000    -1.027000000
H    -1.505000000    -0.230000000    -1.805000000
C     0.557000000    -0.197000000    -1.357000000
H     0.909000000    -0.419000000    -2.362000000
C     1.493000000    -0.032000000    -0.344000000
C     2.981000000    -0.172000000    -0.650000000
O     3.302000000    -0.237000000    -1.813000000
O     3.873000000    -0.006000000     0.196000000
