17
-93.66906
C     1.185000000     0.877000000    -0.060000000
H     2.074000000     1.502000000    -0.029000000
C     0.426000000     0.629000000     1.125000000
H     0.642000000     1.086000000     2.088000000
C    -0.681000000    -0.260000000     1.049000000
C    -1.489000000    -0.625000000     2.264000000
H    -1.508000000     0.198000000     2.982000000
H    -2.541000000    -0.722000000     1.988000000
H    -0.940000000    -1.453000000     2.718000000
C    -0.882000000    -0.913000000    -0.192000000
H    -1.721000000    -1.604000000    -0.226000000
C    -0.102000000    -0.636000000    -1.332000000
H    -0.395000000    -1.114000000    -2.263000000
C     0.906000000     0.310000000    -1.309000000
C     1.583000000     0.715000000    -2.629000000
O     1.072000000     0.408000000    -3.669000000
O     2.372000000     1.608000000    -2.497000000
