17
-98.63704
C     1.108000000     0.907000000    -0.242000000
H     1.845000000     1.677000000    -0.454000000
C     0.576000000     0.633000000     1.035000000
H     0.856000000     1.354000000     1.799000000
C    -0.426000000    -0.340000000     1.162000000
C    -1.296000000    -0.332000000     2.390000000
H    -2.147000000     0.349000000     2.334000000
H    -1.809000000    -1.246000000     2.698000000
H    -0.723000000     0.049000000     3.237000000
C    -0.836000000    -1.023000000    -0.029000000
H    -1.557000000    -1.832000000     0.062000000
C    -0.225000000    -0.824000000    -1.236000000
H    -0.555000000    -1.340000000    -2.134000000
C     0.793000000     0.150000000    -1.369000000
C     1.336000000     0.525000000    -2.730000000
O     0.597000000     0.318000000    -3.703000000
O     2.464000000     0.979000000    -2.828000000
