17
-94.08376
C     0.529000000     1.301000000    -0.482000000
H     0.925000000     2.296000000    -0.666000000
C    -0.158000000     1.147000000     0.726000000
H    -0.320000000     1.898000000     1.495000000
C    -0.600000000    -0.126000000     1.053000000
C    -1.208000000    -0.403000000     2.352000000
H    -0.474000000    -0.174000000     3.127000000
H    -2.096000000     0.220000000     2.479000000
H    -1.550000000    -1.437000000     2.422000000
C    -0.324000000    -1.223000000     0.244000000
H    -0.658000000    -2.236000000     0.458000000
C     0.382000000    -1.064000000    -0.947000000
H     0.645000000    -1.922000000    -1.562000000
C     0.692000000     0.225000000    -1.383000000
C     1.336000000     0.411000000    -2.718000000
O     0.971000000    -0.355000000    -3.579000000
O     1.914000000     1.443000000    -3.027000000
