17
-91.55534
C    -0.121000000    -0.544000000    -1.346000000
H    -0.305000000    -0.893000000    -2.359000000
C    -0.698000000     0.685000000    -0.897000000
H    -1.367000000     1.202000000    -1.580000000
C    -0.408000000     1.176000000     0.415000000
C    -1.312000000     2.208000000     0.830000000
H    -1.954000000     1.739000000     1.579000000
H    -0.804000000     2.997000000     1.388000000
H    -1.972000000     2.572000000     0.040000000
C     0.493000000     0.456000000     1.217000000
H     0.685000000     0.901000000     2.190000000
C     1.094000000    -0.753000000     0.744000000
H     1.677000000    -1.391000000     1.404000000
C     0.713000000    -1.315000000    -0.493000000
C     1.298000000    -2.619000000    -0.929000000
O     1.867000000    -3.379000000    -0.146000000
O     1.110000000    -3.045000000    -2.064000000
