17
-94.70986
C     1.326000000     0.468000000    -0.731000000
H     2.286000000     0.756000000    -1.154000000
C     0.636000000     1.194000000     0.267000000
H     0.963000000     2.191000000     0.554000000
C    -0.514000000     0.684000000     0.869000000
C    -1.269000000     1.391000000     1.981000000
H    -1.041000000     0.775000000     2.853000000
H    -0.873000000     2.404000000     2.085000000
H    -2.348000000     1.333000000     1.823000000
C    -1.077000000    -0.492000000     0.436000000
H    -1.986000000    -0.866000000     0.899000000
C    -0.404000000    -1.247000000    -0.487000000
H    -0.874000000    -2.137000000    -0.899000000
C     0.783000000    -0.821000000    -1.051000000
C     1.301000000    -1.679000000    -2.155000000
O     0.818000000    -2.722000000    -2.489000000
O     2.269000000    -1.228000000    -2.795000000
