17
-96.34989
C    -0.308000000    -0.798000000    -1.194000000
H    -0.464000000    -1.184000000    -2.198000000
C    -0.864000000     0.430000000    -0.874000000
H    -1.556000000     0.799000000    -1.626000000
C    -0.545000000     1.107000000     0.297000000
C    -1.126000000     2.448000000     0.560000000
H    -0.513000000     2.907000000     1.339000000
H    -1.418000000     3.022000000    -0.322000000
H    -2.008000000     2.235000000     1.168000000
C     0.383000000     0.500000000     1.139000000
H     0.653000000     0.997000000     2.067000000
C     0.916000000    -0.766000000     0.939000000
H     1.686000000    -1.173000000     1.589000000
C     0.610000000    -1.420000000    -0.291000000
C     1.311000000    -2.692000000    -0.757000000
O     2.265000000    -3.091000000    -0.083000000
O     0.970000000    -3.326000000    -1.748000000
