17
-94.13354
C     1.414000000     0.230000000    -0.419000000
H     2.435000000     0.408000000    -0.748000000
C     0.663000000     1.213000000     0.234000000
H     1.136000000     2.176000000     0.407000000
C    -0.674000000     0.930000000     0.487000000
C    -1.523000000     1.834000000     1.315000000
H    -1.644000000     1.343000000     2.283000000
H    -1.088000000     2.822000000     1.483000000
H    -2.465000000     1.968000000     0.779000000
C    -1.163000000    -0.310000000     0.135000000
H    -2.214000000    -0.469000000     0.363000000
C    -0.428000000    -1.325000000    -0.348000000
H    -0.904000000    -2.302000000    -0.367000000
C     0.921000000    -1.079000000    -0.693000000
C     1.648000000    -2.165000000    -1.415000000
O     1.272000000    -3.342000000    -1.358000000
O     2.620000000    -1.938000000    -2.135000000
