17
-87.61685
C     0.737000000    -0.607000000    -1.169000000
H     0.973000000    -1.297000000    -1.976000000
C     0.832000000    -0.915000000     0.179000000
H     1.370000000    -1.805000000     0.496000000
C     0.227000000    -0.190000000     1.200000000
C     0.331000000    -0.794000000     2.532000000
H     0.669000000    -1.831000000     2.478000000
H     0.989000000    -0.277000000     3.233000000
H    -0.592000000    -0.907000000     3.103000000
C    -0.752000000     0.744000000     0.883000000
H    -1.466000000     1.180000000     1.578000000
C    -0.841000000     1.245000000    -0.431000000
H    -1.537000000     2.015000000    -0.755000000
C    -0.049000000     0.544000000    -1.463000000
C    -0.243000000     0.882000000    -2.911000000
O    -1.009000000     1.754000000    -3.164000000
O     0.361000000     0.253000000    -3.807000000
