17
-96.58356
C    -0.412000000    -0.103000000    -1.436000000
H    -0.922000000    -0.206000000    -2.391000000
C    -0.851000000     0.859000000    -0.512000000
H    -1.626000000     1.570000000    -0.786000000
C    -0.392000000     0.846000000     0.800000000
C    -0.962000000     1.817000000     1.833000000
H    -0.247000000     2.579000000     2.151000000
H    -1.865000000     2.246000000     1.394000000
H    -1.263000000     1.270000000     2.729000000
C     0.603000000    -0.033000000     1.187000000
H     1.072000000    -0.124000000     2.164000000
C     0.996000000    -0.998000000     0.273000000
H     1.761000000    -1.709000000     0.575000000
C     0.535000000    -1.044000000    -1.037000000
C     1.020000000    -2.088000000    -2.018000000
O     1.767000000    -2.977000000    -1.718000000
O     0.787000000    -1.912000000    -3.204000000
