17
-85.49779
C    -0.768000000     0.485000000    -1.169000000
H    -1.101000000     1.073000000    -2.021000000
C    -0.865000000     0.988000000     0.104000000
H    -1.349000000     1.946000000     0.277000000
C    -0.221000000     0.366000000     1.170000000
C    -0.227000000     1.024000000     2.471000000
H    -1.239000000     1.320000000     2.754000000
H     0.081000000     0.279000000     3.207000000
H     0.532000000     1.807000000     2.410000000
C     0.632000000    -0.718000000     0.956000000
H     1.324000000    -1.008000000     1.743000000
C     0.723000000    -1.239000000    -0.338000000
H     1.492000000    -1.968000000    -0.583000000
C    -0.007000000    -0.616000000    -1.440000000
C     0.287000000    -1.060000000    -2.796000000
O     1.001000000    -2.016000000    -2.940000000
O    -0.298000000    -0.671000000    -3.798000000
