17
-83.10980
C     1.231000000     0.393000000    -0.781000000
H     2.239000000     0.576000000    -1.146000000
C     1.142000000     0.105000000     0.569000000
H     2.056000000     0.094000000     1.159000000
C    -0.027000000    -0.316000000     1.222000000
C     0.001000000    -0.554000000     2.648000000
H     0.714000000     0.105000000     3.148000000
H    -1.001000000    -0.242000000     2.951000000
H     0.152000000    -1.626000000     2.787000000
C    -1.169000000    -0.355000000     0.484000000
H    -2.048000000    -0.437000000     1.118000000
C    -1.188000000     0.035000000    -0.873000000
H    -2.153000000    -0.064000000    -1.364000000
C     0.019000000     0.359000000    -1.527000000
C     0.003000000     0.589000000    -3.018000000
O    -0.997000000     0.679000000    -3.726000000
O     1.033000000     0.655000000    -3.654000000
