17
-96.29709
C    -1.000000000    -0.905000000     0.578000000
H    -1.712000000    -1.451000000     1.192000000
C    -0.772000000     0.475000000     0.910000000
H    -1.428000000     0.932000000     1.647000000
C     0.200000000     1.189000000     0.292000000
C     0.405000000     2.654000000     0.714000000
H     0.923000000     2.654000000     1.676000000
H     1.099000000     3.148000000     0.031000000
H    -0.551000000     3.163000000     0.850000000
C     0.882000000     0.624000000    -0.756000000
H     1.730000000     1.150000000    -1.187000000
C     0.656000000    -0.711000000    -1.117000000
H     1.231000000    -1.180000000    -1.912000000
C    -0.226000000    -1.536000000    -0.424000000
C    -0.460000000    -3.003000000    -0.753000000
O     0.186000000    -3.501000000    -1.670000000
O    -1.158000000    -3.703000000    -0.078000000
