17
-98.90019
C    -1.077000000    -0.935000000     0.417000000
H    -1.933000000    -1.482000000     0.805000000
C    -0.584000000     0.127000000     1.145000000
H    -1.200000000     0.324000000     2.018000000
C     0.488000000     0.969000000     0.667000000
C     0.976000000     2.091000000     1.539000000
H     1.985000000     1.888000000     1.903000000
H     1.031000000     3.043000000     1.006000000
H     0.376000000     2.231000000     2.441000000
C     1.033000000     0.616000000    -0.546000000
H     1.828000000     1.194000000    -1.010000000
C     0.565000000    -0.440000000    -1.295000000
H     1.051000000    -0.706000000    -2.230000000
C    -0.550000000    -1.158000000    -0.880000000
C    -1.178000000    -2.295000000    -1.760000000
O    -0.617000000    -2.580000000    -2.803000000
O    -2.189000000    -2.886000000    -1.416000000
