17
-88.11500
C    -1.228000000    -0.702000000     0.265000000
H    -2.104000000    -1.245000000     0.610000000
C    -0.838000000     0.467000000     0.890000000
H    -1.544000000     0.950000000     1.560000000
C     0.396000000     1.109000000     0.474000000
C     0.832000000     2.426000000     1.168000000
H     0.048000000     2.813000000     1.822000000
H     1.678000000     2.121000000     1.788000000
H     0.992000000     3.252000000     0.473000000
C     1.191000000     0.460000000    -0.479000000
H     2.148000000     0.834000000    -0.834000000
C     0.757000000    -0.700000000    -1.045000000
H     1.404000000    -1.227000000    -1.742000000
C    -0.473000000    -1.323000000    -0.696000000
C    -0.940000000    -2.712000000    -1.265000000
O    -0.449000000    -3.253000000    -2.210000000
O    -1.878000000    -3.276000000    -0.771000000
