17
-96.69464
C    -1.349000000    -0.208000000     0.523000000
H    -2.327000000    -0.299000000     0.990000000
C    -0.611000000     0.970000000     0.683000000
H    -1.128000000     1.688000000     1.315000000
C     0.601000000     1.088000000     0.151000000
C     1.440000000     2.304000000     0.300000000
H     0.797000000     3.177000000     0.173000000
H     1.960000000     2.379000000     1.258000000
H     2.247000000     2.318000000    -0.435000000
C     1.143000000    -0.047000000    -0.511000000
H     2.115000000    -0.033000000    -0.998000000
C     0.408000000    -1.131000000    -0.785000000
H     0.761000000    -1.914000000    -1.451000000
C    -0.839000000    -1.306000000    -0.212000000
C    -1.550000000    -2.642000000    -0.302000000
O    -1.087000000    -3.521000000    -1.042000000
O    -2.574000000    -2.830000000     0.343000000
