17
-97.18847
C    -1.116000000    -0.887000000     0.245000000
H    -1.967000000    -1.517000000     0.490000000
C    -0.861000000     0.198000000     0.993000000
H    -1.380000000     0.487000000     1.904000000
C     0.257000000     0.987000000     0.661000000
C     0.628000000     2.208000000     1.456000000
H     0.256000000     3.114000000     0.974000000
H     0.190000000     2.141000000     2.454000000
H     1.715000000     2.217000000     1.562000000
C     1.066000000     0.708000000    -0.464000000
H     1.923000000     1.299000000    -0.777000000
C     0.773000000    -0.417000000    -1.198000000
H     1.349000000    -0.611000000    -2.099000000
C    -0.311000000    -1.224000000    -0.835000000
C    -0.714000000    -2.555000000    -1.578000000
O     0.090000000    -3.230000000    -2.174000000
O    -1.905000000    -2.910000000    -1.608000000
