17
-91.09278
C    -1.402000000    -0.500000000    -0.202000000
H    -2.453000000    -0.775000000    -0.185000000
C    -1.029000000     0.812000000     0.206000000
H    -1.661000000     1.558000000     0.682000000
C     0.308000000     1.162000000     0.285000000
C     0.762000000     2.524000000     0.824000000
H     0.529000000     3.166000000    -0.028000000
H     0.152000000     2.857000000     1.666000000
H     1.794000000     2.605000000     1.172000000
C     1.222000000     0.163000000     0.152000000
H     2.248000000     0.429000000     0.392000000
C     0.912000000    -1.141000000    -0.247000000
H     1.688000000    -1.903000000    -0.268000000
C    -0.398000000    -1.499000000    -0.468000000
C    -0.799000000    -2.850000000    -1.129000000
O     0.076000000    -3.613000000    -1.504000000
O    -1.957000000    -2.988000000    -1.344000000
