17
-96.15597
C    -1.266000000     0.416000000    -0.620000000
H    -2.232000000     0.740000000    -0.999000000
C    -0.896000000     0.841000000     0.667000000
H    -1.589000000     1.448000000     1.243000000
C     0.358000000     0.400000000     1.076000000
C     0.859000000     0.770000000     2.456000000
H     0.315000000     0.209000000     3.219000000
H     1.867000000     0.393000000     2.644000000
H     0.730000000     1.795000000     2.809000000
C     1.182000000    -0.415000000     0.257000000
H     2.154000000    -0.769000000     0.591000000
C     0.777000000    -0.822000000    -1.004000000
H     1.479000000    -1.463000000    -1.532000000
C    -0.472000000    -0.412000000    -1.475000000
C    -0.961000000    -0.883000000    -2.773000000
O    -0.261000000    -1.701000000    -3.416000000
O    -2.037000000    -0.545000000    -3.145000000
