17
-92.89295
C    -1.341000000     0.668000000     0.188000000
H    -2.314000000     1.105000000     0.394000000
C    -0.424000000     0.479000000     1.233000000
H    -0.654000000     0.809000000     2.242000000
C     0.825000000    -0.080000000     0.902000000
C     1.789000000    -0.440000000     1.990000000
H     2.591000000    -1.099000000     1.649000000
H     2.204000000     0.442000000     2.482000000
H     1.153000000    -0.970000000     2.702000000
C     1.111000000    -0.523000000    -0.357000000
H     2.000000000    -1.069000000    -0.663000000
C     0.170000000    -0.393000000    -1.324000000
H     0.373000000    -0.822000000    -2.302000000
C    -1.041000000     0.245000000    -1.143000000
C    -1.998000000     0.450000000    -2.287000000
O    -1.954000000    -0.345000000    -3.217000000
O    -2.495000000     1.551000000    -2.492000000
