17
-82.63483
C    -1.370000000    -0.248000000    -0.421000000
H    -2.434000000    -0.350000000    -0.618000000
C    -0.969000000     0.303000000     0.833000000
H    -1.743000000     0.644000000     1.516000000
C     0.366000000     0.523000000     1.041000000
C     0.810000000     1.429000000     2.186000000
H     1.521000000     0.907000000     2.829000000
H     1.373000000     2.299000000     1.843000000
H    -0.056000000     1.822000000     2.724000000
C     1.246000000     0.095000000     0.058000000
H     2.293000000     0.268000000     0.293000000
C     0.878000000    -0.497000000    -1.144000000
H     1.661000000    -0.894000000    -1.786000000
C    -0.460000000    -0.764000000    -1.303000000
C    -0.946000000    -1.559000000    -2.444000000
O    -0.117000000    -2.032000000    -3.143000000
O    -2.057000000    -1.949000000    -2.468000000
