17
-97.04858
C    -1.153000000    -0.451000000    -0.773000000
H    -2.072000000    -0.599000000    -1.334000000
C    -0.958000000     0.801000000    -0.179000000
H    -1.696000000     1.587000000    -0.315000000
C     0.140000000     1.131000000     0.560000000
C     0.205000000     2.510000000     1.168000000
H    -0.717000000     3.095000000     1.172000000
H     0.782000000     2.486000000     2.096000000
H     0.892000000     2.972000000     0.456000000
C     1.072000000     0.097000000     0.801000000
H     1.883000000     0.138000000     1.525000000
C     0.883000000    -1.179000000     0.187000000
H     1.612000000    -1.954000000     0.406000000
C    -0.174000000    -1.431000000    -0.689000000
C    -0.198000000    -2.738000000    -1.456000000
O     0.747000000    -3.512000000    -1.508000000
O    -1.241000000    -2.958000000    -2.122000000
