17
-92.29072
C    -1.442000000    -0.032000000     0.305000000
H    -2.383000000    -0.180000000     0.829000000
C    -0.598000000    -1.144000000     0.138000000
H    -0.886000000    -2.162000000     0.388000000
C     0.732000000    -1.005000000    -0.094000000
C     1.687000000    -2.153000000     0.005000000
H     2.365000000    -2.088000000    -0.848000000
H     2.156000000    -2.020000000     0.982000000
H     1.242000000    -3.149000000     0.060000000
C     1.187000000     0.236000000    -0.342000000
H     2.202000000     0.418000000    -0.686000000
C     0.378000000     1.402000000    -0.385000000
H     0.845000000     2.349000000    -0.644000000
C    -0.935000000     1.266000000     0.083000000
C    -1.923000000     2.464000000     0.051000000
O    -1.658000000     3.528000000    -0.489000000
O    -2.967000000     2.274000000     0.645000000
