17
-92.45609
C    -1.204000000    -0.771000000     0.349000000
H    -1.892000000    -1.473000000     0.811000000
C     0.000000000    -1.267000000    -0.214000000
H     0.063000000    -2.349000000    -0.298000000
C     1.091000000    -0.381000000    -0.449000000
C     2.310000000    -1.081000000    -0.910000000
H     3.126000000    -0.386000000    -1.116000000
H     2.467000000    -1.773000000    -0.080000000
H     2.101000000    -1.683000000    -1.798000000
C     1.002000000     0.963000000    -0.212000000
H     1.842000000     1.610000000    -0.448000000
C    -0.250000000     1.475000000     0.111000000
H    -0.307000000     2.544000000     0.297000000
C    -1.367000000     0.642000000     0.451000000
C    -2.688000000     1.173000000     0.949000000
O    -2.839000000     2.371000000     1.062000000
O    -3.462000000     0.390000000     1.495000000
