17
-89.72615
C    -1.049000000     0.659000000    -0.827000000
H    -1.670000000     1.157000000    -1.567000000
C     0.226000000     0.386000000    -1.187000000
H     0.600000000     0.424000000    -2.207000000
C     1.121000000    -0.194000000    -0.343000000
C     2.542000000    -0.404000000    -0.774000000
H     3.246000000    -0.066000000    -0.010000000
H     2.644000000    -1.461000000    -1.026000000
H     2.752000000     0.247000000    -1.625000000
C     0.803000000    -0.539000000     0.960000000
H     1.504000000    -1.078000000     1.593000000
C    -0.536000000    -0.314000000     1.302000000
H    -0.816000000    -0.730000000     2.266000000
C    -1.456000000     0.315000000     0.467000000
C    -2.898000000     0.479000000     0.895000000
O    -3.302000000     0.320000000     2.022000000
O    -3.709000000     0.805000000     0.064000000
