17
-86.28345
C    -0.927000000     0.648000000    -0.955000000
H    -1.463000000     1.203000000    -1.720000000
C     0.404000000     0.416000000    -1.231000000
H     0.895000000     0.805000000    -2.119000000
C     1.184000000    -0.188000000    -0.237000000
C     2.697000000    -0.416000000    -0.470000000
H     2.898000000    -0.213000000    -1.524000000
H     3.221000000     0.288000000     0.180000000
H     3.040000000    -1.437000000    -0.289000000
C     0.591000000    -0.596000000     0.974000000
H     1.208000000    -1.103000000     1.711000000
C    -0.798000000    -0.398000000     1.194000000
H    -1.206000000    -0.742000000     2.141000000
C    -1.556000000     0.281000000     0.271000000
C    -2.999000000     0.538000000     0.638000000
O    -3.377000000    -0.051000000     1.578000000
O    -3.810000000     0.957000000    -0.144000000
