17
-90.72249
C     0.675000000     0.723000000    -1.084000000
H     1.187000000     1.346000000    -1.814000000
C     1.281000000    -0.001000000    -0.112000000
H     2.362000000    -0.064000000    -0.016000000
C     0.518000000    -0.683000000     0.861000000
C     1.213000000    -1.600000000     1.862000000
H     1.615000000    -2.471000000     1.340000000
H     2.013000000    -1.135000000     2.442000000
H     0.480000000    -1.950000000     2.593000000
C    -0.815000000    -0.472000000     0.914000000
H    -1.377000000    -1.024000000     1.663000000
C    -1.442000000     0.309000000    -0.085000000
H    -2.514000000     0.469000000    -0.008000000
C    -0.691000000     0.947000000    -1.063000000
C    -1.301000000     1.737000000    -2.149000000
O    -2.504000000     1.802000000    -2.193000000
O    -0.701000000     2.074000000    -3.153000000
