17
-90.50719
C    -1.404000000    -0.128000000    -0.500000000
H    -2.422000000    -0.220000000    -0.872000000
C    -0.439000000    -1.154000000    -0.407000000
H    -0.743000000    -2.158000000    -0.694000000
C     0.876000000    -0.919000000     0.050000000
C     1.784000000    -2.053000000     0.195000000
H     2.382000000    -2.042000000    -0.718000000
H     2.424000000    -1.940000000     1.073000000
H     1.190000000    -2.966000000     0.273000000
C     1.238000000     0.339000000     0.418000000
H     2.169000000     0.590000000     0.919000000
C     0.333000000     1.431000000     0.240000000
H     0.678000000     2.430000000     0.493000000
C    -1.012000000     1.172000000    -0.170000000
C    -2.061000000     2.233000000    -0.170000000
O    -1.778000000     3.311000000     0.321000000
O    -3.215000000     2.071000000    -0.447000000
