17
-93.14353
C    -1.078000000     0.780000000    -0.700000000
H    -1.858000000     1.255000000    -1.291000000
C     0.069000000     0.194000000    -1.319000000
H     0.184000000     0.256000000    -2.398000000
C     1.022000000    -0.456000000    -0.529000000
C     2.310000000    -1.002000000    -1.150000000
H     2.167000000    -0.880000000    -2.225000000
H     3.045000000    -0.319000000    -0.720000000
H     2.488000000    -2.009000000    -0.766000000
C     0.799000000    -0.630000000     0.811000000
H     1.520000000    -1.238000000     1.352000000
C    -0.300000000    -0.083000000     1.434000000
H    -0.431000000    -0.082000000     2.513000000
C    -1.249000000     0.629000000     0.696000000
C    -2.546000000     1.081000000     1.328000000
O    -2.596000000     1.749000000     2.284000000
O    -3.552000000     0.758000000     0.688000000
