17
-93.56437
C    -0.881000000     0.477000000    -1.060000000
H    -1.458000000     0.588000000    -1.974000000
C     0.431000000    -0.016000000    -1.197000000
H     0.711000000    -0.141000000    -2.239000000
C     1.165000000    -0.516000000    -0.117000000
C     2.587000000    -0.973000000    -0.292000000
H     2.839000000    -1.026000000    -1.353000000
H     3.251000000    -0.323000000     0.283000000
H     2.727000000    -1.992000000     0.075000000
C     0.532000000    -0.522000000     1.132000000
H     0.937000000    -1.010000000     2.015000000
C    -0.753000000     0.110000000     1.304000000
H    -1.212000000     0.149000000     2.288000000
C    -1.438000000     0.675000000     0.203000000
C    -2.774000000     1.339000000     0.334000000
O    -3.558000000     1.127000000     1.205000000
O    -3.102000000     2.047000000    -0.606000000
