17
-91.03454
C    -0.877000000     1.062000000    -0.642000000
H    -1.336000000     1.858000000    -1.223000000
C    -0.030000000     0.158000000    -1.354000000
H     0.109000000     0.163000000    -2.432000000
C     0.719000000    -0.746000000    -0.610000000
C     1.685000000    -1.684000000    -1.358000000
H     1.081000000    -2.461000000    -1.831000000
H     2.321000000    -1.090000000    -2.018000000
H     2.407000000    -2.238000000    -0.755000000
C     0.539000000    -0.837000000     0.767000000
H     1.064000000    -1.589000000     1.350000000
C    -0.294000000    -0.001000000     1.459000000
H    -0.432000000    -0.102000000     2.533000000
C    -0.981000000     0.977000000     0.745000000
C    -1.853000000     1.903000000     1.550000000
O    -2.169000000     1.634000000     2.681000000
O    -1.960000000     3.001000000     1.141000000
