17
-85.71580
C    -0.970000000    -0.181000000    -1.094000000
H    -1.564000000    -0.452000000    -1.962000000
C     0.149000000    -0.936000000    -0.896000000
H     0.258000000    -1.779000000    -1.573000000
C     0.944000000    -0.691000000     0.219000000
C     2.221000000    -1.536000000     0.429000000
H     2.192000000    -2.454000000     1.020000000
H     2.700000000    -1.705000000    -0.538000000
H     2.822000000    -0.763000000     0.913000000
C     0.591000000     0.218000000     1.097000000
H     1.229000000     0.296000000     1.974000000
C    -0.420000000     1.108000000     0.885000000
H    -0.656000000     1.884000000     1.609000000
C    -1.252000000     0.887000000    -0.238000000
C    -2.463000000     1.753000000    -0.540000000
O    -2.766000000     2.592000000     0.306000000
O    -3.013000000     1.754000000    -1.604000000
