17
-98.69268
C     0.025000000     1.389000000    -0.512000000
H     0.103000000     2.378000000    -0.956000000
C     0.968000000     0.408000000    -0.826000000
H     1.785000000     0.711000000    -1.477000000
C     0.807000000    -0.866000000    -0.248000000
C     1.812000000    -1.951000000    -0.523000000
H     2.504000000    -1.512000000    -1.246000000
H     2.372000000    -2.331000000     0.334000000
H     1.435000000    -2.926000000    -0.838000000
C    -0.215000000    -1.101000000     0.614000000
H    -0.464000000    -2.088000000     0.995000000
C    -1.194000000    -0.141000000     0.888000000
H    -2.006000000    -0.430000000     1.551000000
C    -1.072000000     1.105000000     0.297000000
C    -1.998000000     2.226000000     0.586000000
O    -2.569000000     2.140000000     1.700000000
O    -2.289000000     2.993000000    -0.337000000
