17
-92.64490
C    -0.596000000     0.832000000    -1.111000000
H    -1.057000000     1.351000000    -1.947000000
C     0.347000000    -0.105000000    -1.347000000
H     0.433000000    -0.453000000    -2.373000000
C     0.910000000    -0.795000000    -0.224000000
C     1.732000000    -2.057000000    -0.340000000
H     2.548000000    -1.976000000     0.381000000
H     1.077000000    -2.888000000    -0.069000000
H     2.087000000    -2.196000000    -1.364000000
C     0.593000000    -0.443000000     1.047000000
H     1.048000000    -0.928000000     1.907000000
C    -0.313000000     0.622000000     1.273000000
H    -0.558000000     0.718000000     2.328000000
C    -0.987000000     1.142000000     0.216000000
C    -2.092000000     2.166000000     0.482000000
O    -2.423000000     2.412000000     1.608000000
O    -2.741000000     2.592000000    -0.461000000
