17
-98.50036
C    -0.493000000     0.440000000    -1.307000000
H    -0.914000000     0.625000000    -2.291000000
C     0.110000000    -0.796000000    -1.039000000
H     0.179000000    -1.507000000    -1.859000000
C     0.549000000    -1.063000000     0.228000000
C     1.195000000    -2.383000000     0.508000000
H     2.056000000    -2.179000000     1.148000000
H     0.429000000    -2.973000000     1.016000000
H     1.508000000    -2.818000000    -0.444000000
C     0.448000000    -0.129000000     1.197000000
H     0.906000000    -0.334000000     2.161000000
C    -0.172000000     1.102000000     1.030000000
H    -0.285000000     1.767000000     1.882000000
C    -0.605000000     1.383000000    -0.250000000
C    -1.411000000     2.633000000    -0.556000000
O    -1.832000000     3.337000000     0.334000000
O    -1.674000000     2.895000000    -1.763000000
