17
-91.18490
C    -1.342000000     0.502000000    -0.535000000
H    -2.246000000     0.952000000    -0.936000000
C    -0.329000000    -0.104000000    -1.273000000
H    -0.308000000    -0.097000000    -2.360000000
C     0.854000000    -0.631000000    -0.682000000
C     2.077000000    -0.946000000    -1.521000000
H     1.823000000    -1.788000000    -2.168000000
H     2.419000000    -0.129000000    -2.160000000
H     2.872000000    -1.215000000    -0.822000000
C     1.064000000    -0.468000000     0.684000000
H     2.010000000    -0.634000000     1.195000000
C     0.007000000     0.088000000     1.442000000
H     0.115000000     0.222000000     2.516000000
C    -1.213000000     0.473000000     0.822000000
C    -2.302000000     1.082000000     1.689000000
O    -2.159000000     1.202000000     2.877000000
O    -3.349000000     1.497000000     1.229000000
