17
-92.63255
C     0.374000000     1.272000000    -0.603000000
H     0.733000000     2.244000000    -0.931000000
C     0.780000000     0.768000000     0.594000000
H     1.510000000     1.319000000     1.180000000
C     0.404000000    -0.464000000     1.036000000
C     0.697000000    -0.829000000     2.510000000
H     0.795000000    -1.917000000     2.531000000
H     1.650000000    -0.425000000     2.857000000
H    -0.066000000    -0.495000000     3.216000000
C    -0.351000000    -1.297000000     0.215000000
H    -0.652000000    -2.199000000     0.742000000
C    -0.807000000    -0.779000000    -1.048000000
H    -1.495000000    -1.370000000    -1.647000000
C    -0.421000000     0.498000000    -1.483000000
C    -0.985000000     1.106000000    -2.721000000
O    -1.614000000     0.367000000    -3.428000000
O    -0.547000000     2.194000000    -3.028000000
