17
-98.90072
C    -1.126000000     0.546000000    -0.825000000
H    -1.840000000     0.873000000    -1.577000000
C    -0.009000000    -0.146000000    -1.287000000
H     0.111000000    -0.272000000    -2.360000000
C     0.928000000    -0.612000000    -0.413000000
C     2.050000000    -1.395000000    -0.994000000
H     2.844000000    -1.620000000    -0.279000000
H     1.686000000    -2.398000000    -1.225000000
H     2.395000000    -0.906000000    -1.907000000
C     0.880000000    -0.393000000     0.964000000
H     1.663000000    -0.853000000     1.562000000
C    -0.170000000     0.377000000     1.429000000
H    -0.259000000     0.506000000     2.505000000
C    -1.218000000     0.783000000     0.582000000
C    -2.345000000     1.598000000     1.127000000
O    -2.405000000     1.857000000     2.332000000
O    -3.192000000     2.050000000     0.365000000
