17
-99.52334
C    -1.392000000    -0.163000000    -0.436000000
H    -2.390000000    -0.485000000    -0.722000000
C    -0.702000000    -0.942000000     0.445000000
H    -1.264000000    -1.727000000     0.944000000
C     0.640000000    -0.797000000     0.743000000
C     1.341000000    -1.616000000     1.768000000
H     2.105000000    -0.976000000     2.214000000
H     0.643000000    -2.009000000     2.510000000
H     1.808000000    -2.481000000     1.291000000
C     1.239000000     0.354000000     0.203000000
H     2.278000000     0.594000000     0.408000000
C     0.534000000     1.230000000    -0.656000000
H     1.055000000     2.085000000    -1.080000000
C    -0.747000000     0.914000000    -1.035000000
C    -1.528000000     1.784000000    -1.977000000
O    -1.275000000     2.982000000    -1.940000000
O    -2.353000000     1.261000000    -2.678000000
