17
-80.36627
C    -0.841000000    -0.374000000    -1.140000000
H    -1.429000000    -0.747000000    -1.975000000
C    -0.075000000    -1.287000000    -0.406000000
H    -0.091000000    -2.349000000    -0.636000000
C     0.652000000    -0.793000000     0.671000000
C     1.541000000    -1.781000000     1.424000000
H     1.444000000    -1.696000000     2.508000000
H     1.232000000    -2.754000000     1.036000000
H     2.593000000    -1.563000000     1.230000000
C     0.636000000     0.585000000     0.932000000
H     1.214000000     0.895000000     1.799000000
C    -0.142000000     1.501000000     0.258000000
H    -0.008000000     2.567000000     0.422000000
C    -0.903000000     1.011000000    -0.881000000
C    -1.599000000     2.004000000    -1.689000000
O    -1.493000000     3.186000000    -1.557000000
O    -2.724000000     1.590000000    -2.003000000
