17
-93.89384
C    -0.632000000     1.314000000    -0.267000000
H    -0.833000000     2.361000000    -0.478000000
C     0.490000000     1.071000000     0.507000000
H     1.060000000     1.938000000     0.830000000
C     0.948000000    -0.218000000     0.707000000
C     2.134000000    -0.414000000     1.712000000
H     2.440000000     0.550000000     2.123000000
H     1.887000000    -1.124000000     2.504000000
H     3.017000000    -0.725000000     1.150000000
C     0.273000000    -1.305000000     0.158000000
H     0.617000000    -2.319000000     0.342000000
C    -0.900000000    -1.106000000    -0.598000000
H    -1.339000000    -1.906000000    -1.189000000
C    -1.247000000     0.227000000    -0.891000000
C    -2.400000000     0.462000000    -1.849000000
O    -3.012000000    -0.428000000    -2.452000000
O    -2.508000000     1.624000000    -2.313000000
