17
-88.56705
C    -1.315000000    -0.055000000    -0.744000000
H    -2.230000000    -0.238000000    -1.303000000
C    -0.127000000    -0.734000000    -1.066000000
H    -0.148000000    -1.494000000    -1.843000000
C     0.990000000    -0.674000000    -0.256000000
C     2.187000000    -1.490000000    -0.545000000
H     2.072000000    -2.511000000    -0.175000000
H     2.447000000    -1.479000000    -1.605000000
H     3.043000000    -1.041000000    -0.037000000
C     0.997000000     0.206000000     0.802000000
H     1.905000000     0.339000000     1.385000000
C    -0.118000000     0.943000000     1.118000000
H    -0.179000000     1.747000000     1.846000000
C    -1.242000000     0.903000000     0.290000000
C    -2.406000000     1.664000000     0.598000000
O    -2.482000000     2.366000000     1.596000000
O    -3.395000000     1.555000000    -0.066000000
