17
-91.57835
C    -1.056000000     0.750000000    -0.535000000
H    -1.795000000     1.270000000    -1.139000000
C    -0.724000000    -0.515000000    -0.901000000
H    -1.321000000    -0.954000000    -1.697000000
C     0.296000000    -1.180000000    -0.259000000
C     0.550000000    -2.632000000    -0.628000000
H     0.527000000    -2.781000000    -1.710000000
H     1.449000000    -2.869000000    -0.055000000
H    -0.291000000    -3.253000000    -0.311000000
C     1.046000000    -0.515000000     0.665000000
H     1.979000000    -0.920000000     1.048000000
C     0.688000000     0.785000000     1.074000000
H     1.307000000     1.402000000     1.721000000
C    -0.322000000     1.478000000     0.394000000
C    -0.650000000     2.936000000     0.722000000
O    -0.424000000     3.456000000     1.764000000
O    -1.260000000     3.538000000    -0.151000000
