17
-92.34993
C    -0.832000000     0.890000000    -0.851000000
H    -1.527000000     1.385000000    -1.525000000
C    -0.537000000    -0.454000000    -1.098000000
H    -1.037000000    -1.024000000    -1.877000000
C     0.219000000    -1.164000000    -0.155000000
C     0.468000000    -2.631000000    -0.458000000
H     1.185000000    -3.117000000     0.206000000
H    -0.419000000    -3.231000000    -0.245000000
H     0.979000000    -2.732000000    -1.417000000
C     0.886000000    -0.497000000     0.834000000
H     1.581000000    -1.023000000     1.483000000
C     0.654000000     0.870000000     1.006000000
H     1.103000000     1.297000000     1.899000000
C    -0.306000000     1.523000000     0.266000000
C    -0.831000000     2.917000000     0.575000000
O    -0.775000000     3.287000000     1.740000000
O    -0.808000000     3.696000000    -0.377000000
