17
-96.25597
C    -0.779000000     1.267000000     0.023000000
H    -1.304000000     2.216000000    -0.040000000
C    -1.373000000    -0.008000000    -0.088000000
H    -2.449000000    -0.051000000    -0.238000000
C    -0.547000000    -1.076000000    -0.202000000
C    -1.131000000    -2.473000000    -0.391000000
H    -0.736000000    -3.011000000    -1.255000000
H    -0.803000000    -3.017000000     0.497000000
H    -2.220000000    -2.533000000    -0.445000000
C     0.846000000    -0.978000000     0.142000000
H     1.529000000    -1.815000000     0.256000000
C     1.461000000     0.299000000     0.259000000
H     2.513000000     0.386000000     0.516000000
C     0.605000000     1.426000000     0.251000000
C     1.261000000     2.750000000     0.283000000
O     2.439000000     2.880000000     0.675000000
O     0.687000000     3.735000000    -0.243000000
