17
-93.60742
C    -0.201000000     1.141000000    -0.887000000
H    -0.322000000     1.930000000    -1.625000000
C    -0.485000000    -0.224000000    -1.147000000
H    -0.965000000    -0.458000000    -2.095000000
C    -0.262000000    -1.203000000    -0.174000000
C    -0.856000000    -2.547000000    -0.509000000
H    -0.839000000    -3.167000000     0.390000000
H    -1.913000000    -2.410000000    -0.744000000
H    -0.361000000    -2.951000000    -1.394000000
C     0.339000000    -0.877000000     1.003000000
H     0.606000000    -1.717000000     1.639000000
C     0.709000000     0.457000000     1.239000000
H     1.033000000     0.710000000     2.245000000
C     0.567000000     1.447000000     0.285000000
C     0.933000000     2.893000000     0.532000000
O     1.089000000     3.260000000     1.647000000
O     0.926000000     3.718000000    -0.410000000
