17
-88.79856
C    -0.152000000     1.347000000     0.613000000
H    -0.201000000     2.215000000     1.265000000
C    -0.815000000     0.220000000     1.006000000
H    -1.350000000     0.256000000     1.952000000
C    -0.671000000    -0.963000000     0.365000000
C    -1.477000000    -2.139000000     0.750000000
H    -0.995000000    -2.999000000     0.281000000
H    -1.544000000    -2.316000000     1.825000000
H    -2.520000000    -2.087000000     0.430000000
C     0.207000000    -1.101000000    -0.732000000
H     0.407000000    -2.075000000    -1.170000000
C     0.960000000     0.023000000    -1.140000000
H     1.682000000    -0.004000000    -1.952000000
C     0.747000000     1.288000000    -0.480000000
C     1.636000000     2.442000000    -0.891000000
O     2.286000000     2.425000000    -1.893000000
O     1.799000000     3.469000000    -0.222000000
