17
-87.41056
C    -0.660000000     1.250000000     0.052000000
H    -1.117000000     2.235000000     0.008000000
C    -1.182000000     0.142000000    -0.640000000
H    -2.014000000     0.236000000    -1.333000000
C    -0.445000000    -1.014000000    -0.547000000
C    -0.748000000    -2.211000000    -1.435000000
H    -0.507000000    -3.243000000    -1.173000000
H    -1.837000000    -2.129000000    -1.470000000
H    -0.287000000    -2.114000000    -2.420000000
C     0.657000000    -1.123000000     0.324000000
H     1.252000000    -2.029000000     0.396000000
C     1.117000000     0.013000000     1.008000000
H     2.015000000    -0.038000000     1.618000000
C     0.498000000     1.274000000     0.815000000
C     1.026000000     2.557000000     1.392000000
O     1.567000000     2.558000000     2.451000000
O     0.662000000     3.638000000     0.958000000
