17
-96.25142
C    -0.627000000     1.377000000     0.153000000
H    -1.197000000     2.296000000     0.258000000
C    -1.347000000     0.184000000    -0.103000000
H    -2.426000000     0.152000000    -0.236000000
C    -0.615000000    -1.025000000    -0.358000000
C    -1.347000000    -2.325000000    -0.502000000
H    -0.613000000    -2.974000000    -0.984000000
H    -1.706000000    -2.720000000     0.451000000
H    -2.206000000    -2.220000000    -1.168000000
C     0.814000000    -0.998000000    -0.278000000
H     1.344000000    -1.922000000    -0.496000000
C     1.473000000     0.162000000     0.118000000
H     2.545000000     0.145000000     0.300000000
C     0.768000000     1.338000000     0.346000000
C     1.485000000     2.546000000     0.700000000
O     2.597000000     2.638000000     0.241000000
O     1.059000000     3.351000000     1.557000000
