17
-90.18751
C    -0.869000000     1.164000000     0.130000000
H    -1.440000000     2.082000000     0.017000000
C    -1.410000000    -0.109000000    -0.139000000
H    -2.454000000    -0.162000000    -0.436000000
C    -0.506000000    -1.175000000    -0.111000000
C    -0.851000000    -2.549000000    -0.473000000
H    -1.916000000    -2.743000000    -0.330000000
H    -0.684000000    -2.623000000    -1.550000000
H    -0.201000000    -3.252000000     0.051000000
C     0.809000000    -0.926000000     0.177000000
H     1.528000000    -1.728000000     0.033000000
C     1.346000000     0.312000000     0.440000000
H     2.424000000     0.451000000     0.405000000
C     0.544000000     1.451000000     0.367000000
C     1.051000000     2.887000000     0.533000000
O     2.268000000     3.020000000     0.456000000
O     0.354000000     3.905000000     0.437000000
