17
-96.24003
C     0.221000000     0.859000000     1.226000000
H     0.237000000     1.556000000     2.059000000
C    -0.852000000     0.008000000     1.076000000
H    -1.719000000     0.195000000     1.704000000
C    -0.880000000    -0.873000000    -0.040000000
C    -2.161000000    -1.603000000    -0.384000000
H    -2.100000000    -2.132000000    -1.337000000
H    -2.425000000    -2.269000000     0.440000000
H    -2.990000000    -0.909000000    -0.538000000
C     0.168000000    -0.865000000    -0.971000000
H     0.137000000    -1.476000000    -1.869000000
C     1.215000000     0.042000000    -0.878000000
H     1.894000000     0.099000000    -1.725000000
C     1.206000000     0.963000000     0.212000000
C     2.361000000     1.948000000     0.297000000
O     3.215000000     1.838000000    -0.554000000
O     2.478000000     2.623000000     1.280000000
