17
-89.23937
C     0.318000000     1.353000000     0.397000000
H     0.486000000     2.334000000     0.835000000
C    -0.932000000     0.770000000     0.460000000
H    -1.781000000     1.370000000     0.776000000
C    -1.096000000    -0.508000000     0.064000000
C    -2.522000000    -1.200000000     0.124000000
H    -2.434000000    -2.288000000     0.111000000
H    -3.109000000    -0.883000000     0.989000000
H    -3.031000000    -0.808000000    -0.759000000
C    -0.047000000    -1.252000000    -0.407000000
H    -0.113000000    -2.302000000    -0.679000000
C     1.195000000    -0.638000000    -0.505000000
H     2.070000000    -1.104000000    -0.951000000
C     1.417000000     0.664000000    -0.071000000
C     2.826000000     1.292000000    -0.053000000
O     3.781000000     0.786000000    -0.633000000
O     2.965000000     2.419000000     0.295000000
