17
-92.49456
C     0.026000000     0.940000000     1.257000000
H     0.041000000     1.650000000     2.080000000
C    -1.167000000     0.419000000     0.621000000
H    -2.137000000     0.716000000     1.013000000
C    -1.053000000    -0.499000000    -0.477000000
C    -2.238000000    -1.063000000    -1.207000000
H    -2.089000000    -1.977000000    -1.787000000
H    -3.126000000    -1.228000000    -0.593000000
H    -2.647000000    -0.269000000    -1.834000000
C     0.198000000    -0.759000000    -1.004000000
H     0.294000000    -1.326000000    -1.926000000
C     1.340000000    -0.333000000    -0.326000000
H     2.300000000    -0.602000000    -0.759000000
C     1.308000000     0.596000000     0.709000000
C     2.610000000     1.154000000     1.259000000
O     3.651000000     1.248000000     0.546000000
O     2.686000000     1.340000000     2.425000000
