17
-86.46054
C    -0.708000000     1.293000000     0.121000000
H    -1.138000000     2.245000000     0.424000000
C    -0.918000000     0.193000000     0.914000000
H    -1.566000000     0.280000000     1.783000000
C    -0.314000000    -1.062000000     0.640000000
C    -0.358000000    -2.103000000     1.665000000
H    -0.172000000    -1.684000000     2.656000000
H    -1.299000000    -2.653000000     1.604000000
H     0.447000000    -2.808000000     1.445000000
C     0.497000000    -1.183000000    -0.471000000
H     1.001000000    -2.096000000    -0.779000000
C     0.750000000    -0.079000000    -1.289000000
H     1.418000000    -0.167000000    -2.142000000
C     0.196000000     1.180000000    -0.960000000
C     0.568000000     2.508000000    -1.705000000
O     1.347000000     2.514000000    -2.586000000
O     0.257000000     3.627000000    -1.323000000
