17
-90.47276
C     0.481000000     1.317000000     0.424000000
H     0.738000000     2.342000000     0.681000000
C    -0.836000000     0.864000000     0.474000000
H    -1.605000000     1.533000000     0.853000000
C    -1.168000000    -0.427000000     0.046000000
C    -2.558000000    -0.930000000     0.030000000
H    -2.629000000    -1.901000000    -0.466000000
H    -2.906000000    -1.269000000     1.008000000
H    -3.183000000    -0.134000000    -0.380000000
C    -0.159000000    -1.244000000    -0.429000000
H    -0.456000000    -2.285000000    -0.533000000
C     1.149000000    -0.789000000    -0.409000000
H     1.850000000    -1.563000000    -0.711000000
C     1.513000000     0.537000000    -0.061000000
C     2.874000000     1.125000000    -0.133000000
O     3.674000000     0.784000000    -0.982000000
O     3.222000000     2.038000000     0.589000000
