17
-98.45575
C    -0.496000000     1.343000000     0.444000000
H    -0.994000000     2.258000000     0.756000000
C    -1.122000000     0.166000000     0.710000000
H    -1.967000000     0.153000000     1.393000000
C    -0.545000000    -1.053000000     0.266000000
C    -1.092000000    -2.383000000     0.683000000
H    -0.482000000    -2.874000000     1.444000000
H    -2.055000000    -2.212000000     1.168000000
H    -1.245000000    -3.021000000    -0.190000000
C     0.608000000    -1.086000000    -0.481000000
H     1.114000000    -1.972000000    -0.857000000
C     1.218000000     0.156000000    -0.749000000
H     2.030000000     0.178000000    -1.472000000
C     0.695000000     1.394000000    -0.320000000
C     1.304000000     2.664000000    -0.794000000
O     2.082000000     2.636000000    -1.763000000
O     0.951000000     3.660000000    -0.243000000
