17
-93.30918
C    -0.238000000     1.465000000     0.355000000
H    -0.334000000     2.468000000     0.763000000
C    -0.700000000     0.333000000     1.054000000
H    -1.293000000     0.486000000     1.952000000
C    -0.396000000    -0.956000000     0.604000000
C    -0.920000000    -2.156000000     1.442000000
H    -0.958000000    -1.832000000     2.485000000
H    -1.914000000    -2.508000000     1.159000000
H    -0.166000000    -2.945000000     1.435000000
C     0.387000000    -1.202000000    -0.487000000
H     0.690000000    -2.209000000    -0.763000000
C     0.752000000    -0.121000000    -1.295000000
H     1.362000000    -0.254000000    -2.185000000
C     0.439000000     1.204000000    -0.853000000
C     1.007000000     2.402000000    -1.591000000
O     1.472000000     2.230000000    -2.758000000
O     0.809000000     3.599000000    -1.322000000
