17
-94.86897
C     0.606000000     1.339000000    -0.206000000
H     0.996000000     2.333000000    -0.413000000
C    -0.732000000     0.941000000    -0.587000000
H    -1.442000000     1.602000000    -1.077000000
C    -1.095000000    -0.401000000    -0.520000000
C    -2.479000000    -0.825000000    -0.967000000
H    -2.594000000    -0.829000000    -2.053000000
H    -2.577000000    -1.864000000    -0.644000000
H    -3.180000000    -0.163000000    -0.456000000
C    -0.343000000    -1.210000000     0.324000000
H    -0.572000000    -2.244000000     0.571000000
C     0.920000000    -0.775000000     0.808000000
H     1.492000000    -1.491000000     1.392000000
C     1.460000000     0.489000000     0.469000000
C     2.827000000     0.938000000     1.040000000
O     3.643000000     0.056000000     1.332000000
O     3.068000000     2.105000000     0.986000000
