17
-96.97423
C     0.176000000     1.433000000    -0.124000000
H     0.187000000     2.515000000    -0.224000000
C    -1.055000000     0.754000000    -0.281000000
H    -1.964000000     1.306000000    -0.506000000
C    -1.052000000    -0.653000000    -0.035000000
C    -2.364000000    -1.384000000    -0.114000000
H    -2.324000000    -2.076000000    -0.959000000
H    -2.593000000    -1.961000000     0.785000000
H    -3.152000000    -0.694000000    -0.421000000
C     0.101000000    -1.302000000     0.359000000
H     0.102000000    -2.384000000     0.453000000
C     1.299000000    -0.560000000     0.340000000
H     2.259000000    -1.067000000     0.396000000
C     1.368000000     0.758000000     0.045000000
C     2.677000000     1.532000000    -0.006000000
O     3.666000000     1.014000000     0.544000000
O     2.669000000     2.774000000    -0.244000000
