17
-94.96332
C    -0.203000000     1.475000000    -0.085000000
H    -0.476000000     2.527000000    -0.094000000
C    -0.954000000     0.543000000    -0.762000000
H    -1.786000000     0.875000000    -1.378000000
C    -0.621000000    -0.837000000    -0.624000000
C    -1.402000000    -1.894000000    -1.399000000
H    -2.254000000    -1.439000000    -1.908000000
H    -0.743000000    -2.314000000    -2.162000000
H    -1.912000000    -2.635000000    -0.780000000
C     0.504000000    -1.186000000     0.114000000
H     0.893000000    -2.195000000     0.227000000
C     1.222000000    -0.219000000     0.798000000
H     2.076000000    -0.587000000     1.361000000
C     0.783000000     1.073000000     0.820000000
C     1.384000000     2.009000000     1.734000000
O     2.408000000     1.600000000     2.339000000
O     1.082000000     3.196000000     1.795000000
