17
-88.90988
C     0.395000000     1.440000000    -0.091000000
H     0.763000000     2.424000000    -0.368000000
C    -0.453000000     0.767000000    -1.031000000
H    -0.814000000     1.317000000    -1.896000000
C    -0.737000000    -0.563000000    -0.794000000
C    -1.403000000    -1.418000000    -1.895000000
H    -1.238000000    -0.964000000    -2.874000000
H    -1.138000000    -2.477000000    -1.897000000
H    -2.465000000    -1.384000000    -1.642000000
C    -0.431000000    -1.151000000     0.421000000
H    -0.675000000    -2.189000000     0.632000000
C     0.385000000    -0.500000000     1.368000000
H     0.672000000    -0.964000000     2.309000000
C     0.873000000     0.780000000     1.045000000
C     1.865000000     1.446000000     1.984000000
O     1.951000000     1.022000000     3.073000000
O     2.449000000     2.417000000     1.660000000
