17
-95.34301
C     0.180000000     1.418000000     0.539000000
H     0.321000000     2.418000000     0.940000000
C    -0.075000000     1.085000000    -0.802000000
H    -0.235000000     1.903000000    -1.499000000
C    -0.177000000    -0.246000000    -1.201000000
C    -0.327000000    -0.703000000    -2.609000000
H    -0.880000000    -1.644000000    -2.618000000
H    -0.996000000    -0.085000000    -3.210000000
H     0.673000000    -0.806000000    -3.037000000
C    -0.118000000    -1.203000000    -0.259000000
H    -0.149000000    -2.229000000    -0.616000000
C     0.039000000    -0.936000000     1.098000000
H     0.171000000    -1.747000000     1.810000000
C     0.237000000     0.394000000     1.500000000
C     0.456000000     0.697000000     2.917000000
O     0.263000000    -0.167000000     3.786000000
O     0.619000000     1.850000000     3.267000000
