17
-93.28062
C     0.251000000     1.092000000     0.976000000
H     0.442000000     1.930000000     1.641000000
C     0.228000000     1.279000000    -0.427000000
H     0.342000000     2.291000000    -0.809000000
C    -0.036000000     0.158000000    -1.223000000
C    -0.103000000     0.395000000    -2.755000000
H    -0.914000000     1.010000000    -3.152000000
H     0.875000000     0.697000000    -3.136000000
H    -0.303000000    -0.556000000    -3.252000000
C    -0.244000000    -1.062000000    -0.622000000
H    -0.534000000    -1.957000000    -1.166000000
C    -0.169000000    -1.279000000     0.698000000
H    -0.382000000    -2.216000000     1.206000000
C     0.100000000    -0.189000000     1.559000000
C     0.174000000    -0.439000000     3.073000000
O     0.304000000    -1.588000000     3.507000000
O    -0.035000000     0.431000000     3.883000000
