17
-92.18634
C    -0.133000000     0.928000000     1.132000000
H    -0.316000000     1.725000000     1.848000000
C     0.247000000     1.358000000    -0.178000000
H     0.133000000     2.407000000    -0.437000000
C     0.336000000     0.367000000    -1.171000000
C     0.482000000     0.775000000    -2.553000000
H     0.002000000     1.727000000    -2.788000000
H     1.514000000     0.759000000    -2.909000000
H     0.042000000    -0.025000000    -3.153000000
C     0.240000000    -1.011000000    -0.815000000
H     0.275000000    -1.747000000    -1.615000000
C    -0.095000000    -1.360000000     0.556000000
H    -0.169000000    -2.407000000     0.837000000
C    -0.197000000    -0.403000000     1.536000000
C    -0.625000000    -0.910000000     2.873000000
O    -1.115000000    -2.028000000     3.012000000
O    -0.629000000    -0.148000000     3.831000000
