17
-88.44661
C    -0.245000000     0.845000000     1.150000000
H    -0.367000000     1.659000000     1.861000000
C    -0.647000000     1.149000000    -0.190000000
H    -1.000000000     2.145000000    -0.446000000
C    -0.214000000     0.272000000    -1.210000000
C    -0.647000000     0.531000000    -2.602000000
H    -0.865000000     1.598000000    -2.677000000
H     0.165000000     0.416000000    -3.324000000
H    -1.520000000    -0.081000000    -2.839000000
C     0.500000000    -0.871000000    -0.855000000
H     0.803000000    -1.551000000    -1.647000000
C     0.721000000    -1.237000000     0.485000000
H     1.183000000    -2.192000000     0.722000000
C     0.320000000    -0.391000000     1.481000000
C     0.482000000    -0.727000000     2.967000000
O     1.247000000    -1.571000000     3.243000000
O     0.091000000     0.005000000     3.874000000
