17
-90.49924
C     1.162000000    -0.484000000     0.877000000
H     2.084000000    -0.709000000     1.407000000
C     1.185000000     0.580000000    -0.031000000
H     2.048000000     1.195000000    -0.275000000
C     0.045000000     0.917000000    -0.741000000
C     0.114000000     1.895000000    -1.892000000
H     0.980000000     2.555000000    -1.809000000
H     0.094000000     1.353000000    -2.840000000
H    -0.732000000     2.584000000    -1.940000000
C    -1.070000000     0.174000000    -0.679000000
H    -1.863000000     0.489000000    -1.352000000
C    -1.133000000    -0.837000000     0.262000000
H    -2.010000000    -1.478000000     0.231000000
C    -0.087000000    -1.145000000     1.135000000
C    -0.237000000    -2.141000000     2.209000000
O    -1.330000000    -2.490000000     2.555000000
O     0.754000000    -2.461000000     2.880000000
