17
-95.66391
C     0.582000000     0.723000000     1.154000000
H     1.220000000     1.221000000     1.879000000
C     0.215000000     1.350000000    -0.015000000
H     0.359000000     2.384000000    -0.317000000
C    -0.376000000     0.570000000    -0.986000000
C    -0.780000000     1.095000000    -2.363000000
H    -1.796000000     1.494000000    -2.354000000
H    -0.072000000     1.836000000    -2.742000000
H    -0.733000000     0.311000000    -3.122000000
C    -0.640000000    -0.750000000    -0.734000000
H    -0.996000000    -1.395000000    -1.533000000
C    -0.255000000    -1.400000000     0.407000000
H    -0.344000000    -2.482000000     0.461000000
C     0.400000000    -0.652000000     1.364000000
C     0.879000000    -1.283000000     2.648000000
O     1.078000000    -2.498000000     2.749000000
O     1.265000000    -0.516000000     3.505000000
