17
-90.78421
C     1.291000000     0.040000000     0.789000000
H     2.212000000     0.118000000     1.360000000
C     0.886000000     1.026000000    -0.108000000
H     1.435000000     1.965000000    -0.123000000
C    -0.383000000     0.945000000    -0.731000000
C    -0.833000000     1.857000000    -1.746000000
H    -0.568000000     2.842000000    -1.356000000
H    -0.250000000     1.868000000    -2.670000000
H    -1.910000000     1.914000000    -1.919000000
C    -1.167000000    -0.211000000    -0.546000000
H    -2.176000000    -0.333000000    -0.933000000
C    -0.701000000    -1.301000000     0.233000000
H    -1.304000000    -2.189000000     0.405000000
C     0.477000000    -1.152000000     0.925000000
C     0.900000000    -2.212000000     1.865000000
O     0.187000000    -3.140000000     2.002000000
O     1.911000000    -2.035000000     2.560000000
