17
-91.01912
C     0.939000000     0.124000000     1.129000000
H     1.632000000     0.193000000     1.964000000
C     0.804000000     1.073000000     0.085000000
H     1.444000000     1.951000000     0.051000000
C    -0.048000000     0.813000000    -0.967000000
C    -0.386000000     1.909000000    -1.942000000
H     0.574000000     2.257000000    -2.328000000
H    -1.040000000     1.667000000    -2.782000000
H    -0.823000000     2.682000000    -1.306000000
C    -0.716000000    -0.416000000    -0.958000000
H    -1.417000000    -0.589000000    -1.770000000
C    -0.580000000    -1.359000000     0.020000000
H    -1.175000000    -2.261000000    -0.097000000
C     0.180000000    -1.075000000     1.080000000
C     0.155000000    -2.008000000     2.312000000
O    -0.446000000    -3.064000000     2.218000000
O     0.903000000    -1.894000000     3.290000000
