17
-95.46329
C     1.151000000    -0.399000000     0.867000000
H     2.035000000    -0.643000000     1.451000000
C     1.039000000     0.747000000     0.192000000
H     1.794000000     1.529000000     0.203000000
C    -0.109000000     1.067000000    -0.608000000
C    -0.258000000     2.430000000    -1.277000000
H    -0.676000000     2.255000000    -2.271000000
H    -0.934000000     3.030000000    -0.664000000
H     0.723000000     2.907000000    -1.317000000
C    -1.001000000     0.069000000    -0.835000000
H    -1.750000000     0.262000000    -1.598000000
C    -0.921000000    -1.165000000    -0.118000000
H    -1.538000000    -2.023000000    -0.373000000
C     0.120000000    -1.385000000     0.757000000
C     0.144000000    -2.617000000     1.607000000
O    -0.754000000    -3.397000000     1.461000000
O     0.938000000    -2.663000000     2.526000000
