17
-85.19365
C     1.015000000    -0.486000000     0.947000000
H     1.773000000    -0.797000000     1.661000000
C     1.082000000     0.702000000     0.176000000
H     1.910000000     1.403000000     0.235000000
C     0.072000000     1.039000000    -0.706000000
C     0.219000000     2.296000000    -1.542000000
H    -0.672000000     2.878000000    -1.785000000
H     0.966000000     2.942000000    -1.076000000
H     0.616000000     1.934000000    -2.493000000
C    -1.031000000     0.228000000    -0.744000000
H    -1.800000000     0.406000000    -1.491000000
C    -1.225000000    -0.899000000     0.076000000
H    -2.120000000    -1.476000000     0.290000000
C    -0.154000000    -1.287000000     0.898000000
C    -0.215000000    -2.582000000     1.708000000
O    -1.210000000    -3.001000000     2.112000000
O     0.775000000    -3.302000000     1.730000000
