17
-95.88375
C     0.660000000    -0.440000000     1.256000000
H     1.183000000    -0.557000000     2.202000000
C     0.458000000     0.958000000     0.848000000
H     0.882000000     1.738000000     1.474000000
C    -0.236000000     1.199000000    -0.333000000
C    -0.428000000     2.590000000    -0.854000000
H    -1.249000000     2.669000000    -1.569000000
H    -0.589000000     3.380000000    -0.118000000
H     0.489000000     2.953000000    -1.323000000
C    -0.749000000     0.090000000    -0.998000000
H    -1.319000000     0.222000000    -1.914000000
C    -0.428000000    -1.212000000    -0.632000000
H    -0.770000000    -2.055000000    -1.227000000
C     0.231000000    -1.500000000     0.518000000
C     0.463000000    -2.996000000     0.851000000
O     0.136000000    -3.899000000     0.063000000
O     1.264000000    -3.147000000     1.748000000
