17
-96.65364
C    -0.835000000     0.918000000    -0.770000000
H    -1.262000000     1.730000000    -1.354000000
C     0.365000000     1.255000000    -0.163000000
H     0.821000000     2.227000000    -0.329000000
C     1.101000000     0.306000000     0.487000000
C     2.333000000     0.622000000     1.274000000
H     2.058000000     0.730000000     2.325000000
H     3.063000000    -0.189000000     1.244000000
H     2.860000000     1.517000000     0.938000000
C     0.501000000    -0.927000000     0.649000000
H     1.011000000    -1.701000000     1.217000000
C    -0.628000000    -1.275000000    -0.008000000
H    -0.994000000    -2.287000000     0.144000000
C    -1.376000000    -0.354000000    -0.758000000
C    -2.643000000    -0.779000000    -1.469000000
O    -3.187000000    -1.835000000    -1.214000000
O    -3.184000000     0.042000000    -2.209000000
