17
-99.33381
C     0.324000000    -0.386000000     1.350000000
H     0.570000000    -0.519000000     2.400000000
C     0.402000000     0.895000000     0.831000000
H     0.694000000     1.714000000     1.484000000
C     0.199000000     1.153000000    -0.480000000
C     0.215000000     2.519000000    -0.979000000
H     1.084000000     2.644000000    -1.628000000
H    -0.633000000     2.781000000    -1.614000000
H     0.234000000     3.222000000    -0.144000000
C    -0.198000000     0.069000000    -1.294000000
H    -0.394000000     0.303000000    -2.337000000
C    -0.386000000    -1.233000000    -0.777000000
H    -0.840000000    -2.040000000    -1.347000000
C    -0.037000000    -1.522000000     0.553000000
C    -0.324000000    -2.862000000     1.178000000
O    -0.773000000    -3.711000000     0.428000000
O    -0.140000000    -3.033000000     2.381000000
