17
-98.55786
C     0.826000000    -1.084000000     0.423000000
H     1.505000000    -1.843000000     0.801000000
C     1.205000000    -0.078000000    -0.424000000
H     2.207000000    -0.004000000    -0.837000000
C     0.254000000     0.872000000    -0.784000000
C     0.802000000     1.954000000    -1.691000000
H     0.424000000     2.960000000    -1.495000000
H     1.881000000     2.120000000    -1.706000000
H     0.568000000     1.641000000    -2.711000000
C    -1.029000000     0.853000000    -0.258000000
H    -1.766000000     1.623000000    -0.474000000
C    -1.377000000    -0.202000000     0.609000000
H    -2.368000000    -0.196000000     1.054000000
C    -0.441000000    -1.145000000     0.947000000
C    -0.812000000    -2.206000000     1.932000000
O    -1.782000000    -2.086000000     2.656000000
O    -0.091000000    -3.173000000     1.955000000
