17
-98.40090
C    -0.780000000    -1.216000000     0.439000000
H    -1.401000000    -2.082000000     0.653000000
C    -1.398000000     0.022000000     0.088000000
H    -2.483000000     0.078000000     0.060000000
C    -0.547000000     1.038000000    -0.300000000
C    -1.083000000     2.387000000    -0.766000000
H    -0.406000000     3.147000000    -0.370000000
H    -1.062000000     2.374000000    -1.858000000
H    -2.087000000     2.510000000    -0.354000000
C     0.864000000     0.936000000    -0.306000000
H     1.411000000     1.824000000    -0.616000000
C     1.393000000    -0.287000000     0.024000000
H     2.472000000    -0.420000000     0.048000000
C     0.605000000    -1.326000000     0.449000000
C     1.290000000    -2.654000000     0.794000000
O     2.516000000    -2.645000000     0.978000000
O     0.690000000    -3.680000000     1.036000000
