17
-95.14207
C    -0.718000000    -0.378000000     1.245000000
H    -1.135000000    -0.491000000     2.242000000
C    -1.041000000     0.740000000     0.436000000
H    -1.809000000     1.456000000     0.717000000
C    -0.284000000     0.935000000    -0.684000000
C    -0.499000000     2.132000000    -1.565000000
H     0.240000000     2.898000000    -1.321000000
H    -0.247000000     1.941000000    -2.610000000
H    -1.510000000     2.514000000    -1.410000000
C     0.726000000     0.072000000    -1.062000000
H     1.298000000     0.387000000    -1.931000000
C     0.973000000    -0.978000000    -0.272000000
H     1.709000000    -1.732000000    -0.538000000
C     0.296000000    -1.262000000     0.916000000
C     0.574000000    -2.483000000     1.706000000
O     1.580000000    -3.195000000     1.474000000
O    -0.158000000    -2.551000000     2.665000000
