17
-90.11438
C    -0.283000000    -0.034000000     1.477000000
H    -0.372000000    -0.065000000     2.560000000
C     0.354000000     1.013000000     0.790000000
H     0.754000000     1.856000000     1.347000000
C     0.493000000     0.997000000    -0.627000000
C     1.051000000     2.143000000    -1.322000000
H     0.925000000     3.084000000    -0.783000000
H     2.136000000     2.034000000    -1.379000000
H     0.582000000     2.116000000    -2.307000000
C     0.017000000    -0.117000000    -1.300000000
H     0.247000000    -0.187000000    -2.360000000
C    -0.534000000    -1.165000000    -0.627000000
H    -0.755000000    -2.062000000    -1.200000000
C    -0.696000000    -1.206000000     0.787000000
C    -1.248000000    -2.435000000     1.484000000
O    -1.610000000    -3.412000000     0.820000000
O    -1.068000000    -2.559000000     2.633000000
