17
-96.76930
C    -0.801000000    -0.198000000     1.201000000
H    -1.423000000    -0.295000000     2.087000000
C    -0.312000000     1.030000000     0.707000000
H    -0.507000000     1.927000000     1.291000000
C     0.405000000     1.088000000    -0.480000000
C     0.766000000     2.423000000    -1.082000000
H     1.685000000     2.794000000    -0.622000000
H     1.062000000     2.310000000    -2.127000000
H    -0.056000000     3.131000000    -0.956000000
C     0.618000000    -0.072000000    -1.114000000
H     1.151000000    -0.083000000    -2.062000000
C     0.268000000    -1.320000000    -0.630000000
H     0.427000000    -2.233000000    -1.200000000
C    -0.476000000    -1.395000000     0.606000000
C    -0.896000000    -2.700000000     1.209000000
O    -0.243000000    -3.732000000     0.961000000
O    -1.662000000    -2.676000000     2.203000000
