17
-89.51969
C    -0.917000000    -1.037000000     0.333000000
H    -1.681000000    -1.766000000     0.588000000
C    -1.216000000     0.313000000     0.473000000
H    -2.155000000     0.705000000     0.854000000
C    -0.194000000     1.204000000     0.098000000
C    -0.480000000     2.655000000     0.293000000
H    -1.500000000     2.781000000     0.662000000
H     0.285000000     3.111000000     0.926000000
H    -0.321000000     3.016000000    -0.725000000
C     1.034000000     0.747000000    -0.324000000
H     1.768000000     1.517000000    -0.549000000
C     1.257000000    -0.616000000    -0.531000000
H     2.103000000    -0.975000000    -1.112000000
C     0.302000000    -1.492000000    -0.212000000
C     0.507000000    -2.978000000    -0.274000000
O     1.616000000    -3.385000000    -0.252000000
O    -0.414000000    -3.798000000    -0.240000000
