17
-98.47364
C    -0.828000000    -0.955000000     0.827000000
H    -1.386000000    -1.523000000     1.568000000
C    -0.942000000     0.446000000     0.802000000
H    -1.612000000     0.881000000     1.539000000
C    -0.152000000     1.239000000    -0.021000000
C    -0.413000000     2.660000000    -0.054000000
H    -1.476000000     2.848000000    -0.217000000
H    -0.079000000     3.122000000     0.878000000
H     0.153000000     3.136000000    -0.857000000
C     0.893000000     0.656000000    -0.833000000
H     1.406000000     1.249000000    -1.586000000
C     0.996000000    -0.733000000    -0.775000000
H     1.729000000    -1.186000000    -1.439000000
C     0.199000000    -1.536000000     0.006000000
C     0.456000000    -3.033000000     0.059000000
O     1.182000000    -3.536000000    -0.789000000
O    -0.119000000    -3.728000000     0.886000000
