17
-90.33105
C     0.040000000    -1.311000000     0.651000000
H    -0.222000000    -2.283000000     1.062000000
C    -1.063000000    -0.486000000     0.482000000
H    -2.009000000    -0.778000000     0.933000000
C    -0.931000000     0.700000000    -0.185000000
C    -2.175000000     1.545000000    -0.345000000
H    -2.138000000     2.633000000    -0.260000000
H    -2.447000000     1.452000000    -1.399000000
H    -2.944000000     1.206000000     0.353000000
C     0.308000000     1.230000000    -0.526000000
H     0.308000000     2.272000000    -0.837000000
C     1.489000000     0.412000000    -0.344000000
H     2.444000000     0.727000000    -0.756000000
C     1.311000000    -0.870000000     0.239000000
C     2.402000000    -1.872000000     0.309000000
O     3.338000000    -1.669000000    -0.381000000
O     2.295000000    -2.907000000     0.998000000
