17
-93.72117
C    -0.131000000    -1.244000000    -0.905000000
H    -0.363000000    -2.165000000    -1.434000000
C    -0.140000000    -1.234000000     0.465000000
H    -0.304000000    -2.171000000     0.991000000
C    -0.024000000    -0.070000000     1.210000000
C     0.052000000    -0.068000000     2.754000000
H     0.546000000     0.887000000     2.950000000
H    -0.929000000     0.125000000     3.193000000
H     0.636000000    -0.871000000     3.208000000
C     0.012000000     1.192000000     0.584000000
H    -0.161000000     2.120000000     1.123000000
C     0.161000000     1.218000000    -0.827000000
H     0.265000000     2.168000000    -1.345000000
C     0.080000000    -0.038000000    -1.568000000
C     0.116000000     0.008000000    -3.052000000
O     0.553000000     1.018000000    -3.617000000
O    -0.374000000    -0.876000000    -3.723000000
