17
-97.38544
C     0.577000000    -1.268000000    -0.431000000
H     1.023000000    -2.199000000    -0.772000000
C     0.602000000    -0.107000000    -1.186000000
H     1.068000000    -0.077000000    -2.167000000
C     0.073000000     1.102000000    -0.654000000
C     0.086000000     2.435000000    -1.379000000
H     0.293000000     3.261000000    -0.695000000
H     0.880000000     2.459000000    -2.128000000
H    -0.924000000     2.518000000    -1.786000000
C    -0.558000000     0.977000000     0.589000000
H    -1.078000000     1.884000000     0.886000000
C    -0.634000000    -0.197000000     1.325000000
H    -1.211000000    -0.417000000     2.219000000
C     0.014000000    -1.315000000     0.829000000
C     0.001000000    -2.641000000     1.604000000
O    -0.479000000    -2.767000000     2.759000000
O     0.275000000    -3.654000000     0.985000000
