17
-89.53651
C    -0.959000000    -1.069000000    -0.082000000
H    -1.823000000    -1.704000000    -0.255000000
C    -1.211000000     0.215000000     0.302000000
H    -2.235000000     0.524000000     0.497000000
C    -0.229000000     1.180000000     0.248000000
C    -0.569000000     2.589000000     0.679000000
H    -0.192000000     3.280000000    -0.077000000
H    -1.659000000     2.650000000     0.663000000
H    -0.152000000     2.879000000     1.645000000
C     1.070000000     0.769000000    -0.018000000
H     1.824000000     1.551000000    -0.004000000
C     1.366000000    -0.590000000    -0.310000000
H     2.333000000    -0.964000000    -0.638000000
C     0.334000000    -1.468000000    -0.412000000
C     0.591000000    -2.895000000    -0.766000000
O     1.721000000    -3.224000000    -1.028000000
O    -0.214000000    -3.722000000    -0.447000000
