17
-95.21591
C     0.815000000    -1.172000000     0.360000000
H     1.227000000    -2.119000000     0.701000000
C    -0.417000000    -1.166000000    -0.219000000
H    -0.918000000    -2.125000000    -0.321000000
C    -1.155000000    -0.001000000    -0.544000000
C    -2.544000000    -0.120000000    -1.097000000
H    -3.072000000     0.830000000    -0.994000000
H    -2.523000000    -0.347000000    -2.165000000
H    -3.115000000    -0.832000000    -0.498000000
C    -0.467000000     1.228000000    -0.368000000
H    -0.830000000     2.196000000    -0.703000000
C     0.796000000     1.303000000     0.285000000
H     1.287000000     2.252000000     0.484000000
C     1.447000000     0.072000000     0.647000000
C     2.845000000     0.013000000     1.273000000
O     3.245000000     1.075000000     1.581000000
O     3.373000000    -1.083000000     1.572000000
