17
-94.97484
C     0.305000000     0.693000000    -1.319000000
H     0.691000000     1.119000000    -2.241000000
C     1.168000000     0.476000000    -0.267000000
H     2.171000000     0.886000000    -0.350000000
C     0.829000000    -0.184000000     0.915000000
C     1.821000000    -0.306000000     2.075000000
H     1.454000000     0.236000000     2.949000000
H     1.836000000    -1.376000000     2.292000000
H     2.792000000     0.074000000     1.751000000
C    -0.479000000    -0.742000000     1.047000000
H    -0.752000000    -1.259000000     1.964000000
C    -1.374000000    -0.550000000    -0.048000000
H    -2.365000000    -0.992000000     0.016000000
C    -1.028000000     0.236000000    -1.179000000
C    -2.067000000     0.475000000    -2.317000000
O    -3.108000000    -0.131000000    -2.199000000
O    -1.899000000     1.349000000    -3.083000000
