17
-92.07660
C     0.961000000    -1.092000000    -0.137000000
H     1.688000000    -1.859000000    -0.390000000
C     0.069000000    -0.652000000    -1.097000000
H     0.059000000    -1.118000000    -2.079000000
C    -0.862000000     0.384000000    -0.803000000
C    -1.841000000     0.853000000    -1.942000000
H    -1.580000000     0.303000000    -2.848000000
H    -2.876000000     0.863000000    -1.595000000
H    -1.444000000     1.814000000    -2.276000000
C    -0.855000000     0.962000000     0.475000000
H    -1.558000000     1.771000000     0.658000000
C    -0.007000000     0.452000000     1.410000000
H     0.040000000     0.896000000     2.401000000
C     0.990000000    -0.506000000     1.128000000
C     2.127000000    -0.906000000     2.111000000
O     2.078000000    -0.612000000     3.295000000
O     3.018000000    -1.558000000     1.696000000
