17
-90.80389
C     0.994000000    -1.053000000    -0.065000000
H     1.718000000    -1.852000000    -0.197000000
C    -0.047000000    -0.822000000    -1.011000000
H    -0.220000000    -1.428000000    -1.897000000
C    -0.913000000     0.197000000    -0.778000000
C    -2.028000000     0.357000000    -1.812000000
H    -1.843000000     0.582000000    -2.865000000
H    -2.688000000    -0.512000000    -1.772000000
H    -2.770000000     1.056000000    -1.421000000
C    -0.784000000     0.939000000     0.390000000
H    -1.629000000     1.593000000     0.593000000
C     0.285000000     0.859000000     1.299000000
H     0.402000000     1.546000000     2.134000000
C     1.252000000    -0.178000000     0.990000000
C     2.434000000    -0.393000000     1.887000000
O     2.469000000     0.241000000     2.921000000
O     3.374000000    -1.132000000     1.610000000
