17
-98.58024
C     0.772000000    -1.212000000     0.299000000
H     1.201000000    -2.186000000     0.521000000
C    -0.183000000    -1.074000000    -0.687000000
H    -0.660000000    -1.856000000    -1.271000000
C    -0.825000000     0.183000000    -0.891000000
C    -1.877000000     0.166000000    -1.969000000
H    -1.526000000     0.312000000    -2.993000000
H    -2.514000000    -0.719000000    -1.914000000
H    -2.589000000     0.971000000    -1.775000000
C    -0.447000000     1.246000000    -0.098000000
H    -0.991000000     2.184000000    -0.177000000
C     0.545000000     1.118000000     0.900000000
H     0.638000000     1.905000000     1.645000000
C     1.102000000    -0.128000000     1.130000000
C     2.186000000    -0.226000000     2.150000000
O     2.010000000     0.237000000     3.288000000
O     3.161000000    -0.915000000     1.845000000
