17
-93.00877
C     1.048000000    -0.931000000     0.333000000
H     1.881000000    -1.613000000     0.478000000
C     0.736000000    -0.605000000    -0.943000000
H     1.326000000    -0.883000000    -1.813000000
C    -0.377000000     0.262000000    -1.129000000
C    -0.750000000     0.871000000    -2.514000000
H    -1.550000000     1.611000000    -2.586000000
H     0.074000000     1.413000000    -2.983000000
H    -0.955000000     0.042000000    -3.195000000
C    -1.071000000     0.732000000     0.041000000
H    -1.883000000     1.442000000    -0.099000000
C    -0.722000000     0.315000000     1.353000000
H    -1.229000000     0.701000000     2.234000000
C     0.394000000    -0.510000000     1.450000000
C     0.936000000    -0.847000000     2.754000000
O     0.526000000    -0.142000000     3.673000000
O     1.614000000    -1.863000000     2.945000000
