17
-90.58397
C     0.459000000    -1.357000000     0.248000000
H     0.792000000    -2.391000000     0.229000000
C     0.275000000    -0.764000000    -1.006000000
H     0.547000000    -1.299000000    -1.912000000
C    -0.220000000     0.512000000    -1.095000000
C    -0.315000000     1.107000000    -2.486000000
H    -0.503000000     2.182000000    -2.444000000
H     0.551000000     0.777000000    -3.065000000
H    -1.213000000     0.654000000    -2.911000000
C    -0.596000000     1.236000000     0.102000000
H    -0.899000000     2.280000000     0.097000000
C    -0.484000000     0.584000000     1.302000000
H    -0.742000000     1.215000000     2.148000000
C     0.243000000    -0.615000000     1.421000000
C     0.647000000    -1.232000000     2.762000000
O     0.462000000    -0.540000000     3.766000000
O     0.999000000    -2.347000000     2.852000000
