17
-96.17296
C     0.297000000    -1.348000000     0.589000000
H     0.643000000    -2.305000000     0.971000000
C     0.886000000    -0.761000000    -0.519000000
H     1.661000000    -1.336000000    -1.020000000
C     0.552000000     0.539000000    -0.988000000
C     1.263000000     1.184000000    -2.162000000
H     2.040000000     1.848000000    -1.779000000
H     1.723000000     0.378000000    -2.738000000
H     0.465000000     1.627000000    -2.761000000
C    -0.427000000     1.240000000    -0.301000000
H    -0.766000000     2.215000000    -0.641000000
C    -1.100000000     0.591000000     0.729000000
H    -1.961000000     1.125000000     1.123000000
C    -0.783000000    -0.717000000     1.189000000
C    -1.317000000    -1.254000000     2.485000000
O    -2.342000000    -0.763000000     2.962000000
O    -0.826000000    -2.269000000     2.868000000
