17
-97.43309
C     0.194000000    -0.219000000     1.482000000
H     0.394000000    -0.376000000     2.539000000
C     1.200000000     0.196000000     0.605000000
H     2.223000000     0.318000000     0.953000000
C     0.926000000     0.272000000    -0.766000000
C     1.942000000     0.829000000    -1.717000000
H     2.964000000     0.518000000    -1.491000000
H     1.725000000     0.599000000    -2.762000000
H     1.917000000     1.920000000    -1.747000000
C    -0.383000000     0.043000000    -1.223000000
H    -0.607000000     0.007000000    -2.286000000
C    -1.368000000    -0.361000000    -0.324000000
H    -2.406000000    -0.415000000    -0.642000000
C    -1.103000000    -0.471000000     1.035000000
C    -2.216000000    -0.827000000     1.890000000
O    -2.978000000    -1.689000000     1.461000000
O    -2.417000000    -0.342000000     2.991000000
