17
-91.49408
C     0.113000000    -0.142000000     1.382000000
H     0.357000000    -0.131000000     2.441000000
C     1.016000000     0.574000000     0.581000000
H     1.910000000     0.972000000     1.053000000
C     0.746000000     0.684000000    -0.701000000
C     1.623000000     1.522000000    -1.553000000
H     2.446000000     0.870000000    -1.852000000
H     1.045000000     1.824000000    -2.429000000
H     1.919000000     2.374000000    -0.937000000
C    -0.325000000    -0.035000000    -1.330000000
H    -0.544000000     0.178000000    -2.373000000
C    -1.205000000    -0.776000000    -0.465000000
H    -2.059000000    -1.294000000    -0.894000000
C    -0.881000000    -0.894000000     0.891000000
C    -1.762000000    -1.719000000     1.810000000
O    -2.775000000    -2.299000000     1.327000000
O    -1.619000000    -1.710000000     3.045000000
