17
-92.17748
C     0.184000000    -0.113000000     1.506000000
H     0.506000000    -0.194000000     2.541000000
C     1.132000000     0.315000000     0.558000000
H     2.138000000     0.551000000     0.897000000
C     0.855000000     0.342000000    -0.796000000
C     1.930000000     0.738000000    -1.796000000
H     1.381000000     1.390000000    -2.478000000
H     2.680000000     1.300000000    -1.237000000
H     2.331000000    -0.142000000    -2.304000000
C    -0.417000000     0.063000000    -1.244000000
H    -0.626000000     0.092000000    -2.311000000
C    -1.446000000    -0.150000000    -0.337000000
H    -2.439000000    -0.492000000    -0.616000000
C    -1.088000000    -0.368000000     1.026000000
C    -2.130000000    -0.891000000     1.941000000
O    -3.104000000    -1.471000000     1.518000000
O    -1.891000000    -0.970000000     3.131000000
