17
-85.18001
C     1.043000000    -1.002000000     0.062000000
H     1.774000000    -1.806000000     0.036000000
C     0.556000000    -0.497000000    -1.073000000
H     0.875000000    -0.876000000    -2.041000000
C    -0.420000000     0.473000000    -1.045000000
C    -0.901000000     1.153000000    -2.297000000
H    -1.948000000     1.461000000    -2.299000000
H    -0.207000000     1.995000000    -2.332000000
H    -0.994000000     0.444000000    -3.122000000
C    -1.021000000     0.888000000     0.185000000
H    -1.902000000     1.515000000     0.297000000
C    -0.438000000     0.431000000     1.332000000
H    -0.905000000     0.534000000     2.308000000
C     0.604000000    -0.545000000     1.299000000
C     1.126000000    -1.241000000     2.569000000
O     0.626000000    -1.067000000     3.636000000
O     2.137000000    -1.865000000     2.483000000
