17
-94.76590
C     0.319000000    -0.081000000     1.453000000
H     0.641000000    -0.385000000     2.446000000
C     1.242000000     0.155000000     0.415000000
H     2.312000000     0.197000000     0.603000000
C     0.823000000     0.252000000    -0.873000000
C     1.842000000     0.184000000    -2.035000000
H     2.192000000     1.149000000    -2.407000000
H     2.696000000    -0.354000000    -1.618000000
H     1.510000000    -0.427000000    -2.876000000
C    -0.521000000     0.169000000    -1.126000000
H    -0.819000000     0.129000000    -2.171000000
C    -1.456000000     0.106000000    -0.150000000
H    -2.508000000    -0.069000000    -0.361000000
C    -1.034000000    -0.064000000     1.155000000
C    -2.109000000    -0.267000000     2.250000000
O    -3.292000000    -0.169000000     1.905000000
O    -1.841000000    -0.519000000     3.398000000
