17
-98.13983
C    -0.133000000     0.224000000     1.452000000
H    -0.133000000     0.448000000     2.515000000
C     0.645000000     0.985000000     0.598000000
H     1.155000000     1.852000000     1.010000000
C     0.690000000     0.622000000    -0.740000000
C     1.568000000     1.408000000    -1.703000000
H     1.089000000     2.221000000    -2.252000000
H     2.412000000     1.918000000    -1.234000000
H     2.060000000     0.779000000    -2.448000000
C     0.025000000    -0.479000000    -1.214000000
H     0.097000000    -0.860000000    -2.230000000
C    -0.815000000    -1.197000000    -0.350000000
H    -1.446000000    -1.965000000    -0.789000000
C    -0.944000000    -0.787000000     0.976000000
C    -1.835000000    -1.517000000     1.883000000
O    -2.599000000    -2.354000000     1.436000000
O    -1.829000000    -1.296000000     3.087000000
