17
-87.38390
C    -0.244000000    -1.339000000     0.414000000
H    -0.345000000    -2.289000000     0.932000000
C     0.999000000    -0.775000000     0.251000000
H     1.932000000    -1.244000000     0.552000000
C     1.076000000     0.539000000    -0.308000000
C     2.450000000     1.040000000    -0.839000000
H     2.510000000     1.830000000    -1.590000000
H     2.950000000     1.393000000     0.064000000
H     3.154000000     0.244000000    -1.089000000
C    -0.128000000     1.214000000    -0.540000000
H    -0.110000000     2.220000000    -0.953000000
C    -1.371000000     0.636000000    -0.262000000
H    -2.290000000     1.217000000    -0.283000000
C    -1.424000000    -0.655000000     0.301000000
C    -2.680000000    -1.204000000     0.924000000
O    -3.762000000    -0.641000000     0.781000000
O    -2.709000000    -2.184000000     1.643000000
