17
-97.91866
C    -1.194000000     0.117000000    -0.950000000
H    -2.018000000     0.399000000    -1.601000000
C    -0.002000000     0.855000000    -0.991000000
H     0.073000000     1.724000000    -1.640000000
C     0.983000000     0.616000000    -0.045000000
C     2.241000000     1.546000000     0.021000000
H     3.231000000     1.107000000     0.157000000
H     2.307000000     2.111000000    -0.911000000
H     2.079000000     2.262000000     0.830000000
C     0.938000000    -0.407000000     0.832000000
H     1.825000000    -0.476000000     1.456000000
C    -0.204000000    -1.183000000     0.865000000
H    -0.258000000    -1.917000000     1.665000000
C    -1.294000000    -0.925000000    -0.005000000
C    -2.555000000    -1.725000000     0.107000000
O    -2.510000000    -2.909000000     0.468000000
O    -3.639000000    -1.189000000    -0.263000000
