17
-100.79988
C    -0.320000000    -1.229000000     0.676000000
H    -0.459000000    -2.168000000     1.207000000
C     0.961000000    -0.806000000     0.365000000
H     1.785000000    -1.428000000     0.705000000
C     1.135000000     0.393000000    -0.344000000
C     2.490000000     1.046000000    -0.349000000
H     3.167000000     0.279000000     0.034000000
H     2.778000000     1.304000000    -1.370000000
H     2.631000000     1.942000000     0.260000000
C     0.047000000     1.093000000    -0.815000000
H     0.207000000     2.004000000    -1.386000000
C    -1.247000000     0.637000000    -0.520000000
H    -2.124000000     1.162000000    -0.891000000
C    -1.444000000    -0.499000000     0.290000000
C    -2.830000000    -1.085000000     0.622000000
O    -3.851000000    -0.653000000     0.079000000
O    -2.930000000    -1.994000000     1.441000000
