17
-94.29917
C    -0.043000000     0.866000000     1.191000000
H    -0.084000000     1.454000000     2.104000000
C     1.002000000     0.779000000     0.272000000
H     1.938000000     1.320000000     0.384000000
C     0.924000000    -0.091000000    -0.831000000
C     2.146000000    -0.126000000    -1.727000000
H     2.150000000     0.770000000    -2.351000000
H     3.069000000    -0.144000000    -1.143000000
H     2.060000000    -1.049000000    -2.304000000
C    -0.218000000    -0.818000000    -1.024000000
H    -0.363000000    -1.593000000    -1.772000000
C    -1.259000000    -0.719000000    -0.130000000
H    -2.170000000    -1.292000000    -0.281000000
C    -1.240000000     0.146000000     0.931000000
C    -2.325000000     0.186000000     1.953000000
O    -3.325000000    -0.563000000     1.827000000
O    -2.270000000     0.881000000     2.903000000
