17
-97.10882
C    -0.213000000    -1.089000000     0.940000000
H    -0.343000000    -1.986000000     1.540000000
C     0.642000000    -1.120000000    -0.162000000
H     1.167000000    -2.049000000    -0.371000000
C     0.707000000    -0.059000000    -1.070000000
C     1.730000000    -0.098000000    -2.162000000
H     1.769000000     0.867000000    -2.671000000
H     2.713000000    -0.407000000    -1.803000000
H     1.357000000    -0.875000000    -2.833000000
C    -0.021000000     1.072000000    -0.797000000
H    -0.041000000     1.936000000    -1.456000000
C    -0.787000000     1.128000000     0.403000000
H    -1.373000000     2.016000000     0.626000000
C    -0.974000000     0.077000000     1.269000000
C    -1.848000000     0.164000000     2.545000000
O    -2.535000000     1.144000000     2.612000000
O    -1.945000000    -0.723000000     3.388000000
