17
-91.03367
C     0.030000000     0.515000000     1.358000000
H     0.180000000     0.968000000     2.334000000
C     0.988000000     0.676000000     0.409000000
H     1.928000000     1.139000000     0.700000000
C     0.832000000     0.175000000    -0.856000000
C     1.996000000     0.236000000    -1.869000000
H     2.042000000    -0.711000000    -2.410000000
H     1.803000000     1.083000000    -2.531000000
H     2.986000000     0.395000000    -1.436000000
C    -0.353000000    -0.459000000    -1.218000000
H    -0.400000000    -0.967000000    -2.177000000
C    -1.359000000    -0.583000000    -0.292000000
H    -2.219000000    -1.221000000    -0.476000000
C    -1.121000000    -0.196000000     1.096000000
C    -2.156000000    -0.351000000     2.178000000
O    -3.306000000    -0.536000000     1.870000000
O    -1.867000000    -0.156000000     3.318000000
