17
-94.16033
C    -0.575000000     0.922000000     1.032000000
H    -0.960000000     1.600000000     1.789000000
C     0.738000000     0.935000000     0.541000000
H     1.469000000     1.661000000     0.887000000
C     1.115000000     0.008000000    -0.427000000
C     2.526000000     0.078000000    -1.048000000
H     2.960000000    -0.908000000    -1.229000000
H     2.673000000     0.704000000    -1.931000000
H     3.256000000     0.493000000    -0.351000000
C     0.167000000    -0.822000000    -1.019000000
H     0.484000000    -1.394000000    -1.887000000
C    -1.120000000    -0.860000000    -0.431000000
H    -1.877000000    -1.507000000    -0.867000000
C    -1.446000000    -0.076000000     0.606000000
C    -2.764000000    -0.253000000     1.290000000
O    -3.586000000    -1.064000000     0.868000000
O    -3.059000000     0.481000000     2.184000000
