17
-94.58531
C     0.849000000    -0.224000000     1.162000000
H     1.510000000    -0.419000000     2.002000000
C     1.340000000    -0.138000000    -0.114000000
H     2.420000000    -0.043000000    -0.200000000
C     0.427000000    -0.027000000    -1.158000000
C     0.869000000     0.172000000    -2.594000000
H     0.584000000    -0.615000000    -3.295000000
H     0.461000000     1.090000000    -3.021000000
H     1.936000000     0.385000000    -2.686000000
C    -0.990000000     0.051000000    -0.879000000
H    -1.668000000     0.188000000    -1.717000000
C    -1.415000000     0.066000000     0.432000000
H    -2.467000000     0.187000000     0.680000000
C    -0.531000000    -0.158000000     1.469000000
C    -0.976000000    -0.170000000     2.903000000
O    -1.944000000     0.459000000     3.221000000
O    -0.404000000    -0.798000000     3.798000000
