17
-93.79808
C     0.587000000    -0.357000000     1.251000000
H     1.221000000    -0.594000000     2.101000000
C     1.259000000    -0.324000000     0.033000000
H     2.341000000    -0.418000000     0.011000000
C     0.553000000     0.029000000    -1.057000000
C     1.258000000     0.060000000    -2.366000000
H     1.419000000     1.105000000    -2.642000000
H     2.242000000    -0.412000000    -2.333000000
H     0.636000000    -0.397000000    -3.137000000
C    -0.805000000     0.369000000    -0.963000000
H    -1.310000000     0.675000000    -1.875000000
C    -1.493000000     0.340000000     0.215000000
H    -2.535000000     0.641000000     0.293000000
C    -0.762000000     0.004000000     1.338000000
C    -1.361000000    -0.200000000     2.679000000
O    -2.444000000     0.289000000     2.864000000
O    -0.804000000    -0.803000000     3.585000000
