17
-92.39836
C    -0.737000000     0.660000000    -1.048000000
H    -1.202000000     1.081000000    -1.935000000
C     0.642000000     0.719000000    -0.878000000
H     1.309000000     1.337000000    -1.474000000
C     1.230000000     0.140000000     0.186000000
C     2.731000000     0.270000000     0.440000000
H     2.788000000     0.765000000     1.412000000
H     3.024000000    -0.781000000     0.473000000
H     3.204000000     0.802000000    -0.389000000
C     0.353000000    -0.511000000     1.119000000
H     0.833000000    -0.865000000     2.028000000
C    -0.985000000    -0.728000000     0.866000000
H    -1.631000000    -1.244000000     1.571000000
C    -1.544000000    -0.121000000    -0.233000000
C    -2.950000000    -0.401000000    -0.575000000
O    -3.542000000    -1.291000000    -0.003000000
O    -3.519000000     0.168000000    -1.562000000
