17
-90.60405
C    -0.988000000     0.843000000    -0.823000000
H    -1.536000000     1.476000000    -1.516000000
C     0.142000000     1.302000000    -0.159000000
H     0.495000000     2.328000000    -0.222000000
C     0.982000000     0.438000000     0.593000000
C     2.261000000     1.008000000     1.193000000
H     3.048000000     0.757000000     0.478000000
H     2.213000000     2.096000000     1.267000000
H     2.335000000     0.693000000     2.236000000
C     0.586000000    -0.891000000     0.776000000
H     1.309000000    -1.595000000     1.180000000
C    -0.508000000    -1.377000000     0.127000000
H    -0.753000000    -2.425000000     0.279000000
C    -1.270000000    -0.520000000    -0.717000000
C    -2.409000000    -1.239000000    -1.423000000
O    -2.719000000    -2.343000000    -1.157000000
O    -3.181000000    -0.547000000    -2.104000000
