17
-93.35520
C    -0.356000000    -0.687000000     1.226000000
H    -0.490000000    -1.332000000     2.091000000
C     0.262000000    -1.248000000     0.122000000
H     0.531000000    -2.300000000     0.169000000
C     0.490000000    -0.492000000    -1.014000000
C     1.202000000    -1.098000000    -2.248000000
H     1.857000000    -1.892000000    -1.882000000
H     0.549000000    -1.555000000    -2.994000000
H     1.917000000    -0.390000000    -2.671000000
C     0.207000000     0.912000000    -1.015000000
H     0.441000000     1.566000000    -1.851000000
C    -0.474000000     1.418000000     0.153000000
H    -0.656000000     2.476000000    -0.019000000
C    -0.757000000     0.617000000     1.302000000
C    -1.444000000     1.202000000     2.519000000
O    -1.577000000     2.390000000     2.704000000
O    -1.701000000     0.405000000     3.410000000
