17
-92.47972
C     0.421000000    -1.130000000     0.900000000
H     0.916000000    -1.954000000     1.407000000
C     1.119000000    -0.672000000    -0.241000000
H     2.023000000    -1.211000000    -0.511000000
C     0.694000000     0.419000000    -0.994000000
C     1.188000000     0.693000000    -2.303000000
H     1.144000000     1.762000000    -2.520000000
H     2.224000000     0.351000000    -2.341000000
H     0.641000000     0.066000000    -3.011000000
C    -0.557000000     1.045000000    -0.615000000
H    -0.887000000     1.914000000    -1.179000000
C    -1.220000000     0.628000000     0.580000000
H    -2.149000000     1.156000000     0.778000000
C    -0.769000000    -0.443000000     1.291000000
C    -1.413000000    -0.802000000     2.590000000
O    -2.393000000    -0.127000000     2.817000000
O    -0.990000000    -1.701000000     3.350000000
