17
-90.48947
C    -1.041000000    -0.930000000     0.546000000
H    -1.814000000    -1.634000000     0.844000000
C    -0.827000000    -0.603000000    -0.790000000
H    -1.346000000    -1.167000000    -1.560000000
C     0.247000000     0.134000000    -1.183000000
C     0.444000000     0.514000000    -2.636000000
H    -0.500000000     0.970000000    -2.940000000
H     1.365000000     1.033000000    -2.911000000
H     0.434000000    -0.425000000    -3.193000000
C     1.129000000     0.666000000    -0.265000000
H     1.928000000     1.303000000    -0.634000000
C     0.743000000     0.580000000     1.084000000
H     1.250000000     1.198000000     1.821000000
C    -0.270000000    -0.283000000     1.542000000
C    -0.516000000    -0.439000000     3.044000000
O     0.228000000     0.164000000     3.726000000
O    -1.448000000    -1.088000000     3.507000000
