17
-88.48653
C    -1.328000000    -0.492000000     0.572000000
H    -2.238000000    -1.042000000     0.798000000
C    -0.917000000    -0.442000000    -0.771000000
H    -1.547000000    -0.975000000    -1.479000000
C     0.243000000     0.274000000    -1.240000000
C     0.597000000     0.422000000    -2.674000000
H     0.272000000     1.395000000    -3.048000000
H     1.688000000     0.423000000    -2.729000000
H     0.197000000    -0.362000000    -3.319000000
C     1.177000000     0.536000000    -0.229000000
H     2.143000000     0.951000000    -0.507000000
C     0.893000000     0.283000000     1.119000000
H     1.656000000     0.475000000     1.869000000
C    -0.375000000    -0.175000000     1.525000000
C    -0.739000000    -0.355000000     2.957000000
O    -0.056000000     0.124000000     3.824000000
O    -1.661000000    -1.040000000     3.335000000
