17
-94.15800
C    -0.162000000     1.494000000     0.122000000
H    -0.376000000     2.559000000     0.067000000
C    -0.472000000     0.702000000    -0.989000000
H    -0.969000000     1.156000000    -1.842000000
C    -0.400000000    -0.697000000    -0.914000000
C    -0.780000000    -1.540000000    -2.095000000
H    -1.759000000    -2.025000000    -2.109000000
H    -0.686000000    -1.006000000    -3.042000000
H    -0.005000000    -2.278000000    -2.310000000
C     0.175000000    -1.358000000     0.207000000
H     0.290000000    -2.439000000     0.181000000
C     0.623000000    -0.512000000     1.244000000
H     1.258000000    -0.881000000     2.045000000
C     0.409000000     0.887000000     1.264000000
C     0.814000000     1.704000000     2.428000000
O     0.903000000     1.348000000     3.577000000
O     1.135000000     2.878000000     2.167000000
