17
-92.39740
C    -0.984000000     0.688000000     0.802000000
H    -1.742000000     1.217000000     1.374000000
C    -1.052000000     0.623000000    -0.524000000
H    -1.881000000     1.146000000    -0.994000000
C    -0.054000000    -0.100000000    -1.241000000
C    -0.074000000    -0.252000000    -2.739000000
H     0.430000000     0.626000000    -3.149000000
H     0.344000000    -1.230000000    -2.986000000
H    -1.107000000    -0.183000000    -3.086000000
C     1.003000000    -0.715000000    -0.518000000
H     1.711000000    -1.333000000    -1.064000000
C     1.080000000    -0.489000000     0.822000000
H     1.820000000    -1.035000000     1.401000000
C     0.071000000     0.148000000     1.581000000
C     0.113000000     0.244000000     3.068000000
O     1.015000000    -0.298000000     3.637000000
O    -0.697000000     0.937000000     3.614000000
