17
-94.74342
C    -0.005000000    -0.143000000     1.447000000
H    -0.067000000    -0.241000000     2.528000000
C    -1.123000000     0.101000000     0.620000000
H    -2.084000000     0.008000000     1.119000000
C    -0.990000000     0.272000000    -0.708000000
C    -2.221000000     0.449000000    -1.626000000
H    -2.221000000    -0.401000000    -2.310000000
H    -3.133000000     0.463000000    -1.024000000
H    -2.066000000     1.296000000    -2.298000000
C     0.328000000     0.162000000    -1.204000000
H     0.392000000     0.358000000    -2.271000000
C     1.398000000    -0.138000000    -0.472000000
H     2.364000000    -0.163000000    -0.969000000
C     1.236000000    -0.280000000     0.883000000
C     2.405000000    -0.571000000     1.835000000
O     3.556000000    -0.479000000     1.394000000
O     2.229000000    -0.700000000     3.062000000
