17
-98.50071
C    -0.405000000    -0.484000000     1.328000000
H    -0.856000000    -0.932000000     2.210000000
C    -0.971000000    -0.912000000     0.134000000
H    -1.731000000    -1.683000000     0.031000000
C    -0.518000000    -0.354000000    -1.077000000
C    -1.060000000    -0.768000000    -2.406000000
H    -1.834000000    -1.537000000    -2.344000000
H    -1.686000000     0.056000000    -2.753000000
H    -0.274000000    -1.013000000    -3.124000000
C     0.522000000     0.576000000    -0.992000000
H     0.893000000     1.081000000    -1.880000000
C     1.098000000     0.959000000     0.216000000
H     1.935000000     1.652000000     0.228000000
C     0.625000000     0.396000000     1.385000000
C     1.323000000     0.855000000     2.661000000
O     2.028000000     1.827000000     2.699000000
O     0.906000000     0.279000000     3.681000000
