17
-97.46596
C    -0.532000000     0.041000000     1.344000000
H    -0.982000000    -0.051000000     2.329000000
C    -1.202000000    -0.552000000     0.231000000
H    -2.172000000    -1.041000000     0.269000000
C    -0.548000000    -0.438000000    -1.031000000
C    -1.323000000    -0.988000000    -2.211000000
H    -2.226000000    -0.398000000    -2.378000000
H    -0.721000000    -1.135000000    -3.110000000
H    -1.690000000    -1.989000000    -1.979000000
C     0.733000000     0.181000000    -1.116000000
H     1.250000000     0.198000000    -2.072000000
C     1.439000000     0.588000000     0.049000000
H     2.455000000     0.975000000     0.053000000
C     0.735000000     0.641000000     1.204000000
C     1.405000000     1.222000000     2.444000000
O     2.612000000     1.490000000     2.481000000
O     0.759000000     1.258000000     3.488000000
