17
-98.00519
C    -0.491000000     1.033000000     1.005000000
H    -1.039000000     1.657000000     1.707000000
C    -1.284000000     0.367000000     0.041000000
H    -2.312000000     0.674000000    -0.138000000
C    -0.729000000    -0.576000000    -0.853000000
C    -1.525000000    -1.141000000    -1.945000000
H    -2.365000000    -0.517000000    -2.260000000
H    -0.835000000    -1.192000000    -2.790000000
H    -1.776000000    -2.158000000    -1.636000000
C     0.594000000    -0.866000000    -0.695000000
H     1.057000000    -1.514000000    -1.435000000
C     1.436000000    -0.176000000     0.177000000
H     2.488000000    -0.451000000     0.179000000
C     0.845000000     0.649000000     1.160000000
C     1.747000000     1.250000000     2.219000000
O     2.954000000     1.050000000     2.129000000
O     1.232000000     1.911000000     3.132000000
