17
-93.24118
C     0.113000000    -0.859000000     1.217000000
H     0.213000000    -1.503000000     2.087000000
C    -0.949000000    -0.911000000     0.356000000
H    -1.638000000    -1.735000000     0.521000000
C    -1.002000000    -0.044000000    -0.736000000
C    -2.033000000    -0.163000000    -1.762000000
H    -2.716000000    -0.943000000    -1.418000000
H    -2.611000000     0.762000000    -1.809000000
H    -1.616000000    -0.261000000    -2.766000000
C    -0.008000000     0.953000000    -0.874000000
H    -0.070000000     1.608000000    -1.739000000
C     1.107000000     1.012000000    -0.087000000
H     1.907000000     1.697000000    -0.357000000
C     1.188000000     0.081000000     0.978000000
C     2.383000000     0.095000000     1.901000000
O     3.303000000     0.920000000     1.737000000
O     2.434000000    -0.705000000     2.757000000
