17
-99.64518
C     0.665000000    -0.512000000     1.254000000
H     1.099000000    -1.037000000     2.101000000
C    -0.640000000    -0.800000000     0.775000000
H    -1.221000000    -1.563000000     1.287000000
C    -1.171000000    -0.199000000    -0.348000000
C    -2.542000000    -0.635000000    -0.929000000
H    -3.115000000    -1.170000000    -0.169000000
H    -3.100000000     0.256000000    -1.223000000
H    -2.486000000    -1.234000000    -1.841000000
C    -0.364000000     0.669000000    -1.090000000
H    -0.741000000     1.258000000    -1.922000000
C     0.899000000     1.007000000    -0.626000000
H     1.487000000     1.666000000    -1.259000000
C     1.456000000     0.389000000     0.541000000
C     2.851000000     0.586000000     1.023000000
O     3.524000000     1.554000000     0.629000000
O     3.397000000    -0.228000000     1.792000000
