17
-90.63676
C     1.344000000    -0.527000000     0.433000000
H     2.300000000    -0.941000000     0.746000000
C     0.235000000    -1.333000000     0.266000000
H     0.272000000    -2.338000000     0.677000000
C    -0.975000000    -0.740000000    -0.157000000
C    -2.216000000    -1.517000000    -0.328000000
H    -2.182000000    -2.319000000     0.412000000
H    -3.133000000    -0.935000000    -0.214000000
H    -2.232000000    -1.809000000    -1.380000000
C    -1.110000000     0.611000000    -0.358000000
H    -2.062000000     1.060000000    -0.629000000
C     0.026000000     1.461000000    -0.255000000
H     0.042000000     2.514000000    -0.523000000
C     1.263000000     0.872000000     0.181000000
C     2.469000000     1.773000000     0.397000000
O     2.574000000     2.847000000    -0.233000000
O     3.381000000     1.316000000     0.959000000
