17
-94.37046
C     0.450000000     0.570000000     1.324000000
H     0.731000000     1.106000000     2.227000000
C    -0.874000000     0.341000000     0.963000000
H    -1.755000000     0.598000000     1.546000000
C    -1.177000000    -0.313000000    -0.237000000
C    -2.588000000    -0.379000000    -0.707000000
H    -3.279000000    -0.759000000     0.048000000
H    -2.837000000     0.618000000    -1.075000000
H    -2.620000000    -1.116000000    -1.512000000
C    -0.172000000    -0.693000000    -1.097000000
H    -0.363000000    -1.030000000    -2.112000000
C     1.162000000    -0.476000000    -0.734000000
H     1.798000000    -0.793000000    -1.557000000
C     1.529000000     0.182000000     0.450000000
C     2.947000000     0.599000000     0.726000000
O     3.960000000     0.027000000     0.258000000
O     3.082000000     1.515000000     1.485000000
