17
-93.97289
C    -1.034000000    -0.608000000    -0.828000000
H    -1.774000000    -0.918000000    -1.561000000
C    -0.335000000     0.545000000    -1.109000000
H    -0.681000000     1.194000000    -1.910000000
C     0.724000000     0.966000000    -0.351000000
C     1.323000000     2.333000000    -0.548000000
H     2.302000000     2.392000000    -0.068000000
H     1.499000000     2.482000000    -1.616000000
H     0.679000000     3.146000000    -0.209000000
C     0.950000000     0.309000000     0.882000000
H     1.590000000     0.772000000     1.629000000
C     0.187000000    -0.849000000     1.208000000
H     0.340000000    -1.357000000     2.156000000
C    -0.709000000    -1.401000000     0.297000000
C    -1.515000000    -2.644000000     0.633000000
O    -1.056000000    -3.369000000     1.452000000
O    -2.486000000    -2.990000000    -0.050000000
