17
-96.10700
C     0.230000000    -0.245000000     1.436000000
H     0.342000000    -0.483000000     2.490000000
C    -0.909000000     0.378000000     0.962000000
H    -1.793000000     0.620000000     1.548000000
C    -1.014000000     0.551000000    -0.396000000
C    -2.248000000     1.191000000    -1.029000000
H    -2.404000000     0.753000000    -2.018000000
H    -3.093000000     0.952000000    -0.381000000
H    -2.059000000     2.261000000    -1.137000000
C    -0.003000000     0.151000000    -1.268000000
H    -0.139000000     0.268000000    -2.340000000
C     1.161000000    -0.384000000    -0.763000000
H     1.894000000    -0.760000000    -1.471000000
C     1.312000000    -0.702000000     0.598000000
C     2.569000000    -1.370000000     1.121000000
O     3.371000000    -1.774000000     0.332000000
O     2.784000000    -1.413000000     2.314000000
