17
-90.70551
C    -0.378000000    -1.184000000    -0.891000000
H    -0.671000000    -1.977000000    -1.574000000
C     0.120000000     0.014000000    -1.306000000
H     0.271000000     0.227000000    -2.361000000
C     0.435000000     1.040000000    -0.455000000
C     0.920000000     2.378000000    -0.938000000
H     0.164000000     2.892000000    -1.535000000
H     1.090000000     2.967000000    -0.035000000
H     1.845000000     2.167000000    -1.479000000
C     0.321000000     0.829000000     0.908000000
H     0.538000000     1.629000000     1.611000000
C    -0.139000000    -0.339000000     1.390000000
H    -0.334000000    -0.341000000     2.460000000
C    -0.535000000    -1.309000000     0.507000000
C    -1.035000000    -2.643000000     1.074000000
O    -1.395000000    -2.754000000     2.258000000
O    -1.217000000    -3.594000000     0.366000000
