17
-93.72836
C    -0.071000000    -1.384000000     0.487000000
H    -0.186000000    -2.382000000     0.902000000
C    -1.146000000    -0.482000000     0.563000000
H    -2.142000000    -0.815000000     0.844000000
C    -0.958000000     0.800000000     0.151000000
C    -2.036000000     1.822000000     0.010000000
H    -2.491000000     1.815000000    -0.983000000
H    -2.747000000     1.685000000     0.828000000
H    -1.594000000     2.817000000     0.096000000
C     0.263000000     1.143000000    -0.354000000
H     0.402000000     2.163000000    -0.702000000
C     1.374000000     0.279000000    -0.478000000
H     2.343000000     0.602000000    -0.848000000
C     1.218000000    -1.036000000    -0.045000000
C     2.328000000    -2.072000000    -0.044000000
O     3.369000000    -1.650000000    -0.442000000
O     2.069000000    -3.300000000     0.008000000
