17
-98.06781
C    -0.226000000    -1.104000000     0.974000000
H    -0.615000000    -1.800000000     1.713000000
C    -1.091000000    -0.012000000     0.683000000
H    -2.057000000     0.017000000     1.181000000
C    -0.794000000     0.933000000    -0.316000000
C    -1.784000000     2.001000000    -0.739000000
H    -2.302000000     1.597000000    -1.612000000
H    -2.531000000     2.123000000     0.048000000
H    -1.209000000     2.882000000    -1.034000000
C     0.461000000     0.824000000    -0.891000000
H     0.750000000     1.487000000    -1.702000000
C     1.340000000    -0.174000000    -0.510000000
H     2.335000000    -0.063000000    -0.932000000
C     0.985000000    -1.202000000     0.324000000
C     1.977000000    -2.279000000     0.788000000
O     3.093000000    -2.216000000     0.323000000
O     1.668000000    -3.010000000     1.707000000
