17
-92.09873
C     0.026000000    -1.030000000     0.951000000
H    -0.063000000    -1.903000000     1.592000000
C    -1.104000000    -0.419000000     0.537000000
H    -2.021000000    -0.755000000     1.014000000
C    -1.003000000     0.516000000    -0.444000000
C    -2.327000000     1.117000000    -0.995000000
H    -3.109000000     0.454000000    -0.619000000
H    -2.358000000     2.189000000    -0.791000000
H    -2.348000000     0.926000000    -2.070000000
C     0.253000000     1.019000000    -0.891000000
H     0.429000000     1.826000000    -1.598000000
C     1.382000000     0.433000000    -0.346000000
H     2.394000000     0.658000000    -0.675000000
C     1.288000000    -0.668000000     0.515000000
C     2.531000000    -1.261000000     1.137000000
O     3.622000000    -0.814000000     0.899000000
O     2.404000000    -2.289000000     1.786000000
