17
-95.43488
C    -0.534000000    -1.289000000    -0.427000000
H    -1.116000000    -2.059000000    -0.926000000
C     0.393000000    -0.515000000    -1.165000000
H     0.657000000    -0.750000000    -2.194000000
C     0.913000000     0.656000000    -0.566000000
C     1.865000000     1.510000000    -1.423000000
H     2.645000000     1.962000000    -0.808000000
H     2.266000000     0.940000000    -2.264000000
H     1.343000000     2.380000000    -1.828000000
C     0.417000000     1.047000000     0.680000000
H     0.688000000     2.050000000     0.999000000
C    -0.467000000     0.245000000     1.430000000
H    -0.844000000     0.551000000     2.402000000
C    -0.977000000    -0.953000000     0.909000000
C    -2.047000000    -1.771000000     1.591000000
O    -2.526000000    -1.414000000     2.667000000
O    -2.678000000    -2.582000000     0.923000000
