17
-92.25426
C     0.531000000    -1.378000000    -0.076000000
H     0.870000000    -2.383000000    -0.315000000
C    -0.777000000    -0.985000000    -0.003000000
H    -1.541000000    -1.753000000    -0.086000000
C    -1.218000000     0.345000000     0.076000000
C    -2.627000000     0.700000000     0.017000000
H    -3.057000000     0.286000000     0.931000000
H    -2.760000000     1.783000000    -0.026000000
H    -3.157000000     0.307000000    -0.854000000
C    -0.222000000     1.288000000     0.157000000
H    -0.449000000     2.350000000     0.213000000
C     1.110000000     0.905000000     0.208000000
H     1.893000000     1.585000000     0.535000000
C     1.461000000    -0.396000000    -0.012000000
C     2.933000000    -0.799000000    -0.153000000
O     3.829000000    -0.017000000     0.081000000
O     3.173000000    -1.846000000    -0.693000000
