17
-92.79398
C    -0.256000000    -1.297000000    -0.792000000
H    -0.245000000    -2.167000000    -1.443000000
C    -0.229000000     0.036000000    -1.310000000
H    -0.378000000     0.249000000    -2.365000000
C    -0.108000000     1.127000000    -0.491000000
C    -0.064000000     2.495000000    -1.028000000
H    -0.925000000     3.059000000    -0.662000000
H     0.764000000     3.058000000    -0.591000000
H     0.041000000     2.447000000    -2.114000000
C     0.027000000     0.913000000     0.890000000
H    -0.024000000     1.804000000     1.511000000
C     0.055000000    -0.364000000     1.371000000
H     0.215000000    -0.444000000     2.443000000
C    -0.023000000    -1.465000000     0.568000000
C     0.197000000    -2.800000000     1.185000000
O     0.564000000    -2.864000000     2.351000000
O     0.381000000    -3.780000000     0.471000000
