17
-94.67996
C     1.238000000    -0.481000000     0.524000000
H     2.128000000    -0.877000000     1.006000000
C     0.029000000    -0.586000000     1.192000000
H    -0.075000000    -1.155000000     2.112000000
C    -1.089000000    -0.099000000     0.573000000
C    -2.420000000    -0.336000000     1.323000000
H    -2.195000000    -0.747000000     2.309000000
H    -2.897000000     0.637000000     1.455000000
H    -2.999000000    -1.056000000     0.741000000
C    -0.996000000     0.494000000    -0.689000000
H    -1.918000000     0.820000000    -1.162000000
C     0.261000000     0.769000000    -1.267000000
H     0.228000000     1.343000000    -2.190000000
C     1.435000000     0.187000000    -0.757000000
C     2.739000000     0.330000000    -1.510000000
O     2.774000000     0.875000000    -2.619000000
O     3.755000000    -0.122000000    -1.044000000
