17
-91.67063
C     0.761000000    -1.306000000     0.189000000
H     1.242000000    -2.221000000     0.525000000
C    -0.554000000    -1.037000000     0.646000000
H    -1.082000000    -1.825000000     1.178000000
C    -1.178000000     0.084000000     0.312000000
C    -2.551000000     0.439000000     0.842000000
H    -2.732000000     1.516000000     0.815000000
H    -3.268000000    -0.101000000     0.219000000
H    -2.618000000     0.160000000     1.895000000
C    -0.567000000     1.082000000    -0.403000000
H    -1.017000000     2.066000000    -0.511000000
C     0.781000000     0.901000000    -0.788000000
H     1.364000000     1.688000000    -1.260000000
C     1.462000000    -0.280000000    -0.462000000
C     2.894000000    -0.366000000    -0.927000000
O     3.555000000     0.608000000    -1.371000000
O     3.501000000    -1.411000000    -0.893000000
