17
-102.05513
C     0.743000000    -1.123000000     0.662000000
H     1.218000000    -2.013000000     1.066000000
C    -0.533000000    -0.682000000     1.015000000
H    -1.059000000    -1.004000000     1.910000000
C    -1.130000000     0.333000000     0.325000000
C    -2.512000000     0.869000000     0.761000000
H    -3.124000000     1.092000000    -0.115000000
H    -3.057000000     0.112000000     1.329000000
H    -2.400000000     1.806000000     1.310000000
C    -0.446000000     0.948000000    -0.737000000
H    -0.865000000     1.810000000    -1.250000000
C     0.834000000     0.538000000    -1.092000000
H     1.422000000     1.072000000    -1.834000000
C     1.447000000    -0.545000000    -0.445000000
C     2.794000000    -0.969000000    -0.858000000
O     3.165000000    -0.629000000    -1.990000000
O     3.503000000    -1.622000000    -0.057000000
