17
-91.86462
C     1.002000000    -1.078000000     0.204000000
H     1.642000000    -1.957000000     0.231000000
C     0.001000000    -1.105000000    -0.719000000
H    -0.124000000    -1.837000000    -1.513000000
C    -0.902000000    -0.077000000    -0.750000000
C    -2.026000000    -0.062000000    -1.785000000
H    -1.687000000    -0.099000000    -2.822000000
H    -2.690000000    -0.924000000    -1.693000000
H    -2.510000000     0.914000000    -1.709000000
C    -0.880000000     0.955000000     0.210000000
H    -1.696000000     1.673000000     0.230000000
C     0.171000000     1.045000000     1.066000000
H     0.189000000     1.937000000     1.687000000
C     1.217000000     0.007000000     1.028000000
C     2.406000000     0.139000000     1.951000000
O     2.578000000     1.166000000     2.534000000
O     3.308000000    -0.704000000     1.844000000
