17
-87.92858
C     0.259000000    -1.340000000     0.485000000
H     0.280000000    -2.412000000     0.663000000
C    -0.080000000    -0.931000000    -0.777000000
H    -0.175000000    -1.575000000    -1.648000000
C    -0.278000000     0.381000000    -1.133000000
C    -0.855000000     0.709000000    -2.495000000
H    -0.533000000     1.745000000    -2.623000000
H    -0.460000000     0.097000000    -3.309000000
H    -1.944000000     0.695000000    -2.563000000
C    -0.127000000     1.340000000    -0.162000000
H    -0.402000000     2.354000000    -0.443000000
C     0.236000000     0.936000000     1.195000000
H     0.329000000     1.696000000     1.966000000
C     0.534000000    -0.416000000     1.423000000
C     0.965000000    -0.959000000     2.749000000
O     1.034000000    -0.168000000     3.670000000
O     1.218000000    -2.160000000     3.008000000
