17
-96.15690
C     0.107000000    -1.360000000     0.579000000
H     0.351000000    -2.388000000     0.833000000
C     0.850000000    -0.799000000    -0.492000000
H     1.609000000    -1.385000000    -1.004000000
C     0.620000000     0.487000000    -0.912000000
C     1.385000000     1.028000000    -2.133000000
H     1.489000000     2.114000000    -2.183000000
H     2.421000000     0.685000000    -2.188000000
H     0.927000000     0.754000000    -3.086000000
C    -0.295000000     1.278000000    -0.209000000
H    -0.358000000     2.332000000    -0.468000000
C    -1.008000000     0.705000000     0.846000000
H    -1.695000000     1.315000000     1.428000000
C    -0.821000000    -0.593000000     1.166000000
C    -1.632000000    -1.199000000     2.325000000
O    -2.320000000    -0.556000000     3.104000000
O    -1.627000000    -2.412000000     2.399000000
