17
-97.01828
C     0.336000000    -0.843000000     1.183000000
H     0.738000000    -1.600000000     1.851000000
C     0.851000000    -0.869000000    -0.102000000
H     1.501000000    -1.697000000    -0.372000000
C     0.488000000    -0.024000000    -1.139000000
C     1.096000000    -0.293000000    -2.506000000
H     0.792000000    -1.274000000    -2.878000000
H     0.817000000     0.428000000    -3.278000000
H     2.181000000    -0.370000000    -2.405000000
C    -0.401000000     0.976000000    -0.860000000
H    -0.654000000     1.705000000    -1.626000000
C    -0.959000000     1.045000000     0.431000000
H    -1.758000000     1.751000000     0.648000000
C    -0.636000000     0.132000000     1.485000000
C    -1.325000000     0.312000000     2.827000000
O    -1.983000000     1.278000000     3.214000000
O    -1.085000000    -0.657000000     3.528000000
