17
-95.72434
C    -0.644000000    -0.864000000     1.026000000
H    -1.083000000    -1.630000000     1.661000000
C    -0.333000000    -1.227000000    -0.258000000
H    -0.303000000    -2.274000000    -0.549000000
C     0.254000000    -0.351000000    -1.197000000
C     0.550000000    -0.838000000    -2.547000000
H     0.277000000    -0.142000000    -3.343000000
H     1.631000000    -0.980000000    -2.613000000
H     0.046000000    -1.759000000    -2.848000000
C     0.439000000     1.020000000    -0.782000000
H     0.744000000     1.804000000    -1.470000000
C     0.194000000     1.396000000     0.555000000
H     0.367000000     2.417000000     0.884000000
C    -0.303000000     0.432000000     1.507000000
C    -0.498000000     0.871000000     2.932000000
O    -0.206000000     2.002000000     3.383000000
O    -1.135000000     0.117000000     3.656000000
