17
-90.86294
C    -0.469000000    -1.270000000     0.653000000
H    -0.535000000    -2.215000000     1.185000000
C    -0.006000000    -1.078000000    -0.658000000
H     0.118000000    -1.944000000    -1.303000000
C     0.324000000     0.089000000    -1.198000000
C     0.970000000     0.118000000    -2.560000000
H     0.596000000     0.859000000    -3.270000000
H     2.044000000     0.289000000    -2.464000000
H     0.791000000    -0.877000000    -2.975000000
C     0.261000000     1.264000000    -0.365000000
H     0.527000000     2.199000000    -0.852000000
C    -0.326000000     1.169000000     0.864000000
H    -0.533000000     2.048000000     1.470000000
C    -0.541000000    -0.105000000     1.459000000
C    -1.010000000    -0.160000000     2.940000000
O    -0.589000000     0.708000000     3.688000000
O    -1.626000000    -1.090000000     3.392000000
