17
-90.26399
C    -0.205000000    -1.472000000     0.213000000
H    -0.155000000    -2.542000000     0.397000000
C     0.466000000    -0.858000000    -0.869000000
H     1.057000000    -1.453000000    -1.561000000
C     0.378000000     0.501000000    -1.097000000
C     1.178000000     1.187000000    -2.169000000
H     1.310000000     0.599000000    -3.079000000
H     0.583000000     2.031000000    -2.524000000
H     2.160000000     1.427000000    -1.755000000
C    -0.198000000     1.252000000    -0.132000000
H    -0.355000000     2.323000000    -0.232000000
C    -0.787000000     0.684000000     0.971000000
H    -1.285000000     1.293000000     1.721000000
C    -0.746000000    -0.672000000     1.195000000
C    -1.068000000    -1.282000000     2.589000000
O    -1.319000000    -0.538000000     3.484000000
O    -1.010000000    -2.482000000     2.851000000
