17
-99.38239
C     0.537000000    -0.584000000     1.273000000
H     0.989000000    -1.128000000     2.098000000
C     0.918000000    -0.919000000    -0.059000000
H     1.573000000    -1.747000000    -0.317000000
C     0.370000000    -0.287000000    -1.183000000
C     0.502000000    -0.798000000    -2.598000000
H     1.474000000    -1.264000000    -2.774000000
H    -0.204000000    -1.589000000    -2.856000000
H     0.362000000    -0.015000000    -3.346000000
C    -0.442000000     0.797000000    -0.910000000
H    -0.936000000     1.295000000    -1.741000000
C    -0.790000000     1.188000000     0.364000000
H    -1.500000000     1.995000000     0.523000000
C    -0.387000000     0.455000000     1.496000000
C    -0.803000000     0.769000000     2.964000000
O    -1.063000000     1.944000000     3.278000000
O    -0.597000000    -0.105000000     3.782000000
