17
-93.49171
C    -1.185000000    -0.783000000    -0.216000000
H    -1.939000000    -1.526000000    -0.464000000
C    -0.037000000    -0.807000000    -0.999000000
H     0.006000000    -1.479000000    -1.852000000
C     0.980000000     0.060000000    -0.693000000
C     2.218000000     0.107000000    -1.556000000
H     2.214000000    -0.766000000    -2.211000000
H     2.396000000     1.019000000    -2.130000000
H     3.021000000    -0.243000000    -0.905000000
C     0.909000000     0.834000000     0.443000000
H     1.809000000     1.370000000     0.734000000
C    -0.279000000     0.936000000     1.172000000
H    -0.273000000     1.581000000     2.047000000
C    -1.246000000     0.016000000     0.928000000
C    -2.525000000    -0.066000000     1.699000000
O    -2.624000000     0.527000000     2.736000000
O    -3.450000000    -0.780000000     1.270000000
