17
-91.66531
C     0.732000000    -0.925000000     0.971000000
H     1.439000000    -1.483000000     1.579000000
C     1.057000000    -0.683000000    -0.385000000
H     1.948000000    -1.126000000    -0.824000000
C     0.243000000     0.137000000    -1.211000000
C     0.466000000     0.277000000    -2.736000000
H    -0.124000000     1.012000000    -3.287000000
H     1.474000000     0.650000000    -2.927000000
H     0.308000000    -0.672000000    -3.254000000
C    -0.851000000     0.691000000    -0.639000000
H    -1.441000000     1.270000000    -1.344000000
C    -1.166000000     0.566000000     0.753000000
H    -1.992000000     1.146000000     1.157000000
C    -0.328000000    -0.239000000     1.586000000
C    -0.520000000    -0.161000000     3.087000000
O    -1.543000000     0.249000000     3.630000000
O     0.296000000    -0.707000000     3.846000000
