17
-97.70328
C     0.890000000    -0.393000000     1.061000000
H     1.600000000    -0.765000000     1.794000000
C     1.263000000    -0.106000000    -0.223000000
H     2.273000000    -0.273000000    -0.590000000
C     0.348000000     0.195000000    -1.179000000
C     0.767000000     0.483000000    -2.617000000
H     1.719000000     0.020000000    -2.883000000
H    -0.029000000     0.121000000    -3.272000000
H     0.817000000     1.569000000    -2.718000000
C    -0.977000000     0.263000000    -0.790000000
H    -1.729000000     0.423000000    -1.558000000
C    -1.397000000     0.024000000     0.497000000
H    -2.429000000    -0.076000000     0.822000000
C    -0.427000000    -0.238000000     1.503000000
C    -0.832000000    -0.435000000     2.995000000
O    -1.953000000    -0.190000000     3.347000000
O     0.093000000    -0.615000000     3.803000000
