17
-98.33054
C     1.493000000    -0.172000000     0.178000000
H     2.554000000    -0.302000000     0.377000000
C     0.787000000    -0.544000000    -0.952000000
H     1.334000000    -0.939000000    -1.804000000
C    -0.561000000    -0.305000000    -1.065000000
C    -1.439000000    -0.573000000    -2.294000000
H    -1.428000000     0.275000000    -2.983000000
H    -0.942000000    -1.409000000    -2.790000000
H    -2.488000000    -0.742000000    -2.039000000
C    -1.231000000     0.391000000     0.008000000
H    -2.296000000     0.573000000    -0.107000000
C    -0.548000000     0.705000000     1.180000000
H    -1.105000000     1.141000000     2.005000000
C     0.778000000     0.317000000     1.297000000
C     1.502000000     0.481000000     2.620000000
O     0.862000000     0.597000000     3.674000000
O     2.736000000     0.511000000     2.688000000
