17
-93.06024
C     1.251000000    -0.554000000     0.549000000
H     2.119000000    -1.087000000     0.927000000
C     0.859000000    -0.680000000    -0.758000000
H     1.521000000    -1.119000000    -1.500000000
C    -0.311000000    -0.102000000    -1.183000000
C    -0.686000000    -0.149000000    -2.568000000
H    -1.592000000     0.441000000    -2.724000000
H     0.153000000     0.273000000    -3.125000000
H    -0.880000000    -1.189000000    -2.840000000
C    -1.119000000     0.609000000    -0.292000000
H    -2.073000000     1.059000000    -0.554000000
C    -0.690000000     0.775000000     0.974000000
H    -1.290000000     1.295000000     1.716000000
C     0.432000000     0.098000000     1.451000000
C     0.720000000     0.113000000     2.900000000
O     0.124000000     0.911000000     3.652000000
O     1.460000000    -0.701000000     3.382000000
