17
-85.94945
C     1.338000000    -0.294000000     0.620000000
H     2.279000000    -0.662000000     1.022000000
C     0.753000000    -0.940000000    -0.507000000
H     1.301000000    -1.546000000    -1.224000000
C    -0.528000000    -0.582000000    -0.911000000
C    -1.166000000    -1.324000000    -2.141000000
H    -1.822000000    -0.749000000    -2.798000000
H    -0.398000000    -1.841000000    -2.720000000
H    -1.763000000    -2.162000000    -1.773000000
C    -1.140000000     0.483000000    -0.380000000
H    -2.090000000     0.806000000    -0.799000000
C    -0.564000000     1.148000000     0.723000000
H    -1.152000000     1.918000000     1.215000000
C     0.653000000     0.769000000     1.246000000
C     1.271000000     1.468000000     2.488000000
O     0.581000000     1.994000000     3.306000000
O     2.445000000     1.522000000     2.637000000
