17
-92.95803
C     0.929000000    -0.699000000     0.872000000
H     1.750000000    -1.110000000     1.454000000
C     0.914000000    -0.748000000    -0.503000000
H     1.639000000    -1.391000000    -0.996000000
C    -0.015000000    -0.098000000    -1.239000000
C    -0.023000000    -0.122000000    -2.775000000
H    -0.937000000    -0.486000000    -3.250000000
H     0.155000000     0.917000000    -3.060000000
H     0.763000000    -0.800000000    -3.114000000
C    -0.965000000     0.592000000    -0.590000000
H    -1.719000000     1.186000000    -1.101000000
C    -0.924000000     0.714000000     0.843000000
H    -1.631000000     1.345000000     1.377000000
C     0.001000000     0.015000000     1.575000000
C     0.029000000     0.190000000     3.095000000
O    -0.811000000     0.886000000     3.652000000
O     0.845000000    -0.388000000     3.761000000
