17
-98.68150
C     1.486000000    -0.367000000     0.124000000
H     2.482000000    -0.799000000     0.168000000
C     0.677000000    -0.455000000    -1.013000000
H     1.127000000    -0.816000000    -1.935000000
C    -0.652000000    -0.091000000    -1.046000000
C    -1.482000000     0.037000000    -2.325000000
H    -1.645000000    -0.968000000    -2.719000000
H    -2.472000000     0.478000000    -2.190000000
H    -0.960000000     0.558000000    -3.130000000
C    -1.254000000     0.208000000     0.165000000
H    -2.333000000     0.338000000     0.175000000
C    -0.498000000     0.291000000     1.376000000
H    -0.991000000     0.702000000     2.254000000
C     0.868000000     0.123000000     1.325000000
C     1.664000000     0.210000000     2.585000000
O     1.157000000     0.723000000     3.598000000
O     2.826000000    -0.167000000     2.587000000
