17
-91.13556
C     0.689000000     0.672000000     1.057000000
H     1.304000000     1.062000000     1.864000000
C     1.132000000    -0.384000000     0.276000000
H     2.139000000    -0.721000000     0.510000000
C     0.350000000    -0.970000000    -0.730000000
C     0.981000000    -2.051000000    -1.548000000
H     0.685000000    -2.000000000    -2.598000000
H     2.038000000    -1.774000000    -1.542000000
H     0.971000000    -3.051000000    -1.108000000
C    -0.959000000    -0.653000000    -0.751000000
H    -1.727000000    -1.260000000    -1.225000000
C    -1.460000000     0.469000000    -0.040000000
H    -2.481000000     0.825000000    -0.152000000
C    -0.610000000     1.152000000     0.867000000
C    -0.955000000     2.483000000     1.587000000
O    -2.017000000     3.073000000     1.376000000
O    -0.082000000     3.133000000     2.165000000
