17
-96.33909
C     1.126000000    -0.061000000     0.903000000
H     1.890000000    -0.215000000     1.661000000
C     0.493000000    -1.148000000     0.365000000
H     0.844000000    -2.141000000     0.634000000
C    -0.659000000    -0.963000000    -0.430000000
C    -1.113000000    -2.145000000    -1.215000000
H    -2.201000000    -2.157000000    -1.307000000
H    -0.679000000    -2.250000000    -2.211000000
H    -0.848000000    -3.054000000    -0.671000000
C    -1.115000000     0.319000000    -0.706000000
H    -1.979000000     0.381000000    -1.361000000
C    -0.417000000     1.417000000    -0.196000000
H    -0.657000000     2.436000000    -0.490000000
C     0.681000000     1.250000000     0.608000000
C     1.434000000     2.482000000     1.204000000
O     0.812000000     3.542000000     1.252000000
O     2.388000000     2.305000000     1.958000000
