17
-97.94695
C     1.243000000    -0.780000000     0.291000000
H     2.053000000    -1.478000000     0.489000000
C     0.426000000    -0.908000000    -0.819000000
H     0.682000000    -1.605000000    -1.612000000
C    -0.699000000    -0.137000000    -0.992000000
C    -1.406000000    -0.212000000    -2.294000000
H    -1.005000000     0.423000000    -3.086000000
H    -1.368000000    -1.237000000    -2.667000000
H    -2.413000000     0.138000000    -2.058000000
C    -1.084000000     0.719000000    -0.025000000
H    -1.966000000     1.335000000    -0.181000000
C    -0.260000000     0.926000000     1.057000000
H    -0.540000000     1.614000000     1.850000000
C     0.891000000     0.183000000     1.280000000
C     1.643000000     0.336000000     2.575000000
O     1.311000000     1.208000000     3.342000000
O     2.487000000    -0.528000000     2.851000000
