17
-86.17184
C    -0.515000000     1.032000000    -1.011000000
H    -0.704000000     1.841000000    -1.713000000
C     0.869000000     0.753000000    -0.722000000
H     1.700000000     1.199000000    -1.263000000
C     1.174000000    -0.235000000     0.198000000
C     2.621000000    -0.509000000     0.573000000
H     3.165000000    -0.927000000    -0.276000000
H     3.024000000     0.448000000     0.913000000
H     2.735000000    -1.179000000     1.428000000
C     0.179000000    -1.046000000     0.712000000
H     0.436000000    -1.843000000     1.405000000
C    -1.148000000    -0.779000000     0.478000000
H    -1.825000000    -1.446000000     1.006000000
C    -1.520000000     0.294000000    -0.346000000
C    -2.991000000     0.660000000    -0.521000000
O    -3.884000000     0.021000000     0.046000000
O    -3.318000000     1.719000000    -0.899000000
