17
-94.47137
C    -0.271000000    -1.455000000    -0.232000000
H    -0.333000000    -2.514000000    -0.467000000
C     0.983000000    -0.872000000    -0.209000000
H     1.840000000    -1.525000000    -0.356000000
C     1.123000000     0.509000000     0.124000000
C     2.412000000     1.210000000     0.007000000
H     3.075000000     0.878000000     0.808000000
H     2.970000000     0.842000000    -0.857000000
H     2.346000000     2.282000000     0.205000000
C    -0.019000000     1.266000000     0.408000000
H     0.043000000     2.325000000     0.641000000
C    -1.300000000     0.733000000     0.226000000
H    -2.087000000     1.481000000     0.179000000
C    -1.399000000    -0.666000000    -0.014000000
C    -2.765000000    -1.305000000    -0.111000000
O    -3.768000000    -0.808000000     0.351000000
O    -2.842000000    -2.376000000    -0.707000000
