17
-95.05597
C     0.240000000     1.208000000     0.899000000
H     0.487000000     2.021000000     1.576000000
C     1.205000000     0.179000000     0.550000000
H     2.256000000     0.185000000     0.827000000
C     0.814000000    -0.918000000    -0.242000000
C     1.809000000    -1.988000000    -0.575000000
H     2.045000000    -2.505000000     0.358000000
H     1.313000000    -2.630000000    -1.305000000
H     2.799000000    -1.720000000    -0.949000000
C    -0.496000000    -0.887000000    -0.807000000
H    -0.778000000    -1.702000000    -1.469000000
C    -1.341000000     0.189000000    -0.618000000
H    -2.282000000     0.197000000    -1.162000000
C    -1.063000000     1.143000000     0.346000000
C    -2.099000000     2.113000000     0.814000000
O    -3.177000000     2.129000000     0.208000000
O    -1.736000000     2.984000000     1.555000000
