17
-99.13182
C    -0.471000000    -1.310000000    -0.400000000
H    -0.709000000    -2.346000000    -0.628000000
C     0.865000000    -1.006000000    -0.183000000
H     1.624000000    -1.767000000    -0.343000000
C     1.180000000     0.268000000     0.172000000
C     2.620000000     0.664000000     0.440000000
H     3.078000000     1.126000000    -0.437000000
H     2.712000000     1.369000000     1.269000000
H     3.163000000    -0.208000000     0.811000000
C     0.188000000     1.264000000     0.325000000
H     0.396000000     2.289000000     0.622000000
C    -1.126000000     0.942000000     0.001000000
H    -1.892000000     1.691000000     0.186000000
C    -1.533000000    -0.369000000    -0.265000000
C    -2.958000000    -0.761000000    -0.464000000
O    -3.834000000     0.066000000    -0.838000000
O    -3.297000000    -1.913000000    -0.276000000
