17
-88.70224
C     0.208000000     1.166000000     0.863000000
H     0.511000000     1.927000000     1.578000000
C     1.237000000     0.339000000     0.425000000
H     2.256000000     0.436000000     0.790000000
C     0.895000000    -0.801000000    -0.445000000
C     2.003000000    -1.702000000    -0.844000000
H     2.372000000    -1.277000000    -1.780000000
H     2.752000000    -1.819000000    -0.058000000
H     1.525000000    -2.632000000    -1.159000000
C    -0.494000000    -0.974000000    -0.785000000
H    -0.738000000    -1.862000000    -1.362000000
C    -1.496000000    -0.083000000    -0.378000000
H    -2.515000000    -0.054000000    -0.755000000
C    -1.124000000     0.955000000     0.500000000
C    -2.183000000     1.880000000     0.986000000
O    -3.317000000     1.972000000     0.494000000
O    -1.899000000     2.523000000     1.924000000
