17
-100.25825
C    -0.288000000     1.444000000     0.045000000
H    -0.500000000     2.510000000     0.017000000
C     0.916000000     0.875000000     0.409000000
H     1.740000000     1.491000000     0.760000000
C     1.050000000    -0.535000000     0.350000000
C     2.397000000    -1.093000000     0.581000000
H     2.268000000    -1.948000000     1.248000000
H     2.838000000    -1.469000000    -0.344000000
H     3.068000000    -0.328000000     0.978000000
C    -0.006000000    -1.355000000    -0.030000000
H     0.235000000    -2.411000000    -0.125000000
C    -1.242000000    -0.786000000    -0.331000000
H    -2.039000000    -1.470000000    -0.612000000
C    -1.379000000     0.657000000    -0.322000000
C    -2.694000000     1.305000000    -0.785000000
O    -3.662000000     0.599000000    -0.863000000
O    -2.708000000     2.510000000    -0.972000000
