17
-94.67239
C    -0.046000000     1.208000000    -0.894000000
H     0.024000000     2.033000000    -1.597000000
C     0.871000000     0.190000000    -0.875000000
H     1.755000000     0.295000000    -1.499000000
C     0.856000000    -0.873000000    -0.005000000
C     1.840000000    -1.965000000    -0.138000000
H     2.574000000    -1.918000000     0.670000000
H     1.308000000    -2.913000000    -0.037000000
H     2.364000000    -1.851000000    -1.090000000
C    -0.149000000    -1.009000000     0.927000000
H    -0.199000000    -1.762000000     1.710000000
C    -1.065000000     0.015000000     0.933000000
H    -1.895000000    -0.067000000     1.630000000
C    -1.034000000     1.163000000     0.096000000
C    -2.131000000     2.231000000     0.089000000
O    -3.238000000     1.815000000    -0.076000000
O    -1.838000000     3.402000000     0.161000000
