17
-88.60639
C     0.526000000     1.227000000     0.567000000
H     1.032000000     2.053000000     1.060000000
C     1.163000000    -0.033000000     0.748000000
H     2.069000000    -0.204000000     1.324000000
C     0.422000000    -1.152000000     0.269000000
C     0.909000000    -2.579000000     0.403000000
H     0.227000000    -3.325000000     0.814000000
H     1.192000000    -3.030000000    -0.551000000
H     1.728000000    -2.372000000     1.095000000
C    -0.670000000    -0.958000000    -0.564000000
H    -1.219000000    -1.799000000    -0.980000000
C    -1.186000000     0.351000000    -0.857000000
H    -2.083000000     0.476000000    -1.459000000
C    -0.602000000     1.473000000    -0.236000000
C    -1.008000000     2.901000000    -0.544000000
O    -2.200000000     3.151000000    -0.814000000
O    -0.292000000     3.816000000    -0.282000000
