17
-92.00381
C     0.865000000     0.855000000     0.815000000
H     1.637000000     1.416000000     1.336000000
C     1.057000000    -0.487000000     0.503000000
H     1.895000000    -1.031000000     0.930000000
C     0.140000000    -1.216000000    -0.281000000
C     0.340000000    -2.638000000    -0.618000000
H     1.042000000    -2.923000000     0.169000000
H    -0.575000000    -3.225000000    -0.521000000
H     0.783000000    -2.689000000    -1.615000000
C    -0.985000000    -0.603000000    -0.710000000
H    -1.702000000    -1.147000000    -1.319000000
C    -1.180000000     0.797000000    -0.444000000
H    -2.047000000     1.295000000    -0.870000000
C    -0.214000000     1.521000000     0.358000000
C    -0.324000000     2.971000000     0.658000000
O    -1.302000000     3.587000000     0.326000000
O     0.578000000     3.519000000     1.275000000
