17
-94.58441
C    -1.373000000     0.507000000    -0.258000000
H    -2.410000000     0.831000000    -0.270000000
C    -1.015000000    -0.820000000    -0.173000000
H    -1.754000000    -1.617000000    -0.161000000
C     0.336000000    -1.148000000     0.045000000
C     0.748000000    -2.643000000     0.053000000
H     0.819000000    -3.063000000    -0.952000000
H     1.707000000    -2.785000000     0.555000000
H     0.002000000    -3.253000000     0.568000000
C     1.272000000    -0.138000000     0.233000000
H     2.282000000    -0.435000000     0.502000000
C     0.909000000     1.210000000     0.068000000
H     1.688000000     1.952000000     0.225000000
C    -0.403000000     1.519000000    -0.179000000
C    -0.787000000     2.923000000    -0.143000000
O    -0.213000000     3.729000000     0.577000000
O    -1.800000000     3.234000000    -0.698000000
