17
-91.80801
C    -1.331000000     0.317000000    -0.510000000
H    -2.327000000     0.452000000    -0.925000000
C    -0.819000000    -0.966000000    -0.211000000
H    -1.469000000    -1.821000000    -0.379000000
C     0.450000000    -1.122000000     0.302000000
C     0.993000000    -2.509000000     0.509000000
H     1.064000000    -2.617000000     1.593000000
H     0.354000000    -3.299000000     0.108000000
H     2.016000000    -2.549000000     0.130000000
C     1.264000000    -0.025000000     0.478000000
H     2.265000000    -0.102000000     0.896000000
C     0.726000000     1.240000000     0.238000000
H     1.308000000     2.133000000     0.451000000
C    -0.522000000     1.455000000    -0.389000000
C    -1.114000000     2.773000000    -0.761000000
O    -0.671000000     3.808000000    -0.269000000
O    -2.190000000     2.839000000    -1.261000000
