17
-85.52174
C    -1.450000000     0.027000000     0.157000000
H    -2.531000000    -0.085000000     0.131000000
C    -0.692000000    -0.637000000    -0.874000000
H    -1.220000000    -1.180000000    -1.654000000
C     0.677000000    -0.516000000    -0.980000000
C     1.375000000    -1.239000000    -2.038000000
H     0.611000000    -1.737000000    -2.639000000
H     1.873000000    -0.609000000    -2.778000000
H     2.036000000    -1.957000000    -1.549000000
C     1.301000000     0.256000000     0.047000000
H     2.384000000     0.348000000     0.053000000
C     0.561000000     0.889000000     1.108000000
H     1.047000000     1.361000000     1.958000000
C    -0.797000000     0.770000000     1.181000000
C    -1.551000000     1.186000000     2.396000000
O    -0.922000000     1.708000000     3.299000000
O    -2.702000000     1.417000000     2.190000000
