17
-97.04908
C    -1.501000000    -0.003000000     0.120000000
H    -2.577000000    -0.131000000     0.209000000
C    -0.667000000    -1.109000000    -0.190000000
H    -1.042000000    -2.125000000    -0.284000000
C     0.730000000    -0.992000000    -0.205000000
C     1.600000000    -2.197000000    -0.530000000
H     1.698000000    -2.932000000     0.271000000
H     1.276000000    -2.690000000    -1.449000000
H     2.614000000    -1.841000000    -0.728000000
C     1.243000000     0.295000000    -0.206000000
H     2.305000000     0.424000000    -0.397000000
C     0.481000000     1.420000000     0.113000000
H     0.909000000     2.419000000     0.123000000
C    -0.918000000     1.256000000     0.340000000
C    -1.811000000     2.421000000     0.830000000
O    -1.346000000     3.490000000     1.206000000
O    -3.000000000     2.290000000     0.781000000
