17
-91.12464
C    -0.719000000     0.720000000    -1.165000000
H    -1.301000000     1.130000000    -1.987000000
C    -0.921000000    -0.630000000    -0.770000000
H    -1.638000000    -1.216000000    -1.339000000
C    -0.223000000    -1.179000000     0.320000000
C    -0.411000000    -2.619000000     0.905000000
H    -0.927000000    -3.231000000     0.163000000
H     0.523000000    -3.117000000     1.174000000
H    -1.067000000    -2.492000000     1.769000000
C     0.666000000    -0.367000000     0.991000000
H     1.103000000    -0.843000000     1.865000000
C     0.923000000     0.980000000     0.585000000
H     1.626000000     1.651000000     1.073000000
C     0.249000000     1.449000000    -0.452000000
C     0.562000000     2.935000000    -0.848000000
O     1.596000000     3.379000000    -0.451000000
O    -0.033000000     3.453000000    -1.825000000
