17
-87.21855
C    -1.427000000    -0.385000000     0.193000000
H    -2.465000000    -0.695000000     0.277000000
C    -0.441000000    -1.306000000     0.123000000
H    -0.628000000    -2.371000000     0.020000000
C     0.848000000    -0.826000000    -0.102000000
C     2.008000000    -1.754000000    -0.448000000
H     2.061000000    -1.832000000    -1.536000000
H     3.004000000    -1.367000000    -0.225000000
H     1.876000000    -2.717000000     0.049000000
C     1.123000000     0.551000000    -0.207000000
H     2.113000000     0.936000000    -0.442000000
C     0.141000000     1.460000000    -0.016000000
H     0.365000000     2.523000000     0.007000000
C    -1.109000000     0.987000000     0.253000000
C    -2.196000000     1.943000000     0.630000000
O    -1.865000000     3.053000000     0.955000000
O    -3.407000000     1.802000000     0.466000000
