17
-90.15718
C    -1.077000000    -0.852000000     0.457000000
H    -1.893000000    -1.506000000     0.750000000
C    -0.618000000    -0.819000000    -0.806000000
H    -0.955000000    -1.496000000    -1.587000000
C     0.316000000     0.099000000    -1.169000000
C     0.945000000     0.086000000    -2.519000000
H     0.542000000    -0.704000000    -3.156000000
H     0.830000000     1.046000000    -3.026000000
H     2.005000000    -0.155000000    -2.413000000
C     0.853000000     0.927000000    -0.188000000
H     1.678000000     1.534000000    -0.554000000
C     0.537000000     0.807000000     1.137000000
H     1.005000000     1.554000000     1.773000000
C    -0.527000000    -0.043000000     1.470000000
C    -1.069000000    -0.125000000     2.876000000
O    -0.597000000     0.540000000     3.754000000
O    -1.978000000    -0.894000000     3.208000000
