17
-95.23434
C    -1.042000000     0.677000000     0.864000000
H    -1.847000000     1.155000000     1.416000000
C    -0.844000000     0.899000000    -0.520000000
H    -1.511000000     1.578000000    -1.045000000
C     0.135000000     0.157000000    -1.230000000
C     0.288000000     0.263000000    -2.715000000
H     1.343000000     0.191000000    -2.985000000
H    -0.323000000    -0.456000000    -3.266000000
H    -0.060000000     1.220000000    -3.108000000
C     1.055000000    -0.649000000    -0.535000000
H     1.856000000    -1.197000000    -1.024000000
C     0.824000000    -0.880000000     0.840000000
H     1.333000000    -1.665000000     1.393000000
C    -0.222000000    -0.226000000     1.573000000
C    -0.265000000    -0.249000000     3.085000000
O     0.679000000    -0.623000000     3.732000000
O    -1.399000000    -0.198000000     3.521000000
