17
-94.22548
C    -1.265000000    -0.714000000     0.040000000
H    -2.186000000    -1.285000000    -0.039000000
C    -0.419000000    -0.631000000    -1.103000000
H    -0.661000000    -1.091000000    -2.058000000
C     0.789000000     0.023000000    -0.917000000
C     1.806000000    -0.117000000    -2.041000000
H     1.631000000    -1.108000000    -2.466000000
H     1.665000000     0.580000000    -2.869000000
H     2.824000000    -0.023000000    -1.657000000
C     1.115000000     0.808000000     0.236000000
H     1.926000000     1.532000000     0.248000000
C     0.183000000     0.791000000     1.279000000
H     0.353000000     1.350000000     2.196000000
C    -1.039000000    -0.003000000     1.236000000
C    -1.960000000    -0.076000000     2.355000000
O    -1.688000000     0.487000000     3.403000000
O    -3.079000000    -0.520000000     2.164000000
