17
-99.51146
C    -1.162000000     0.671000000     0.616000000
H    -1.923000000     1.386000000     0.919000000
C    -0.854000000     0.534000000    -0.775000000
H    -1.553000000     1.006000000    -1.461000000
C     0.205000000    -0.200000000    -1.195000000
C     0.546000000    -0.155000000    -2.682000000
H    -0.300000000    -0.166000000    -3.372000000
H     1.040000000     0.790000000    -2.915000000
H     1.104000000    -1.072000000    -2.886000000
C     1.027000000    -0.827000000    -0.258000000
H     1.911000000    -1.363000000    -0.595000000
C     0.793000000    -0.645000000     1.107000000
H     1.472000000    -1.089000000     1.830000000
C    -0.302000000     0.072000000     1.534000000
C    -0.579000000     0.333000000     3.001000000
O    -0.113000000    -0.505000000     3.768000000
O    -1.317000000     1.224000000     3.360000000
