17
-96.78679
C    -0.122000000    -1.163000000     0.866000000
H    -0.185000000    -2.084000000     1.440000000
C    -0.275000000    -1.248000000    -0.505000000
H    -0.459000000    -2.163000000    -1.063000000
C    -0.100000000    -0.044000000    -1.182000000
C    -0.169000000     0.027000000    -2.695000000
H     0.759000000     0.507000000    -3.015000000
H    -0.372000000    -0.938000000    -3.165000000
H    -1.047000000     0.578000000    -3.039000000
C     0.077000000     1.183000000    -0.546000000
H     0.040000000     2.073000000    -1.169000000
C     0.126000000     1.262000000     0.842000000
H     0.250000000     2.185000000     1.403000000
C     0.144000000     0.054000000     1.561000000
C     0.397000000    -0.034000000     3.051000000
O     0.863000000     0.893000000     3.591000000
O     0.077000000    -1.089000000     3.632000000
