17
-97.58043
C    -0.095000000    -1.331000000     0.567000000
H    -0.183000000    -2.358000000     0.909000000
C     0.051000000    -1.081000000    -0.791000000
H     0.120000000    -1.829000000    -1.577000000
C     0.201000000     0.297000000    -1.164000000
C     0.494000000     0.572000000    -2.598000000
H     1.408000000     1.122000000    -2.832000000
H     0.473000000    -0.358000000    -3.170000000
H    -0.312000000     1.140000000    -3.067000000
C     0.153000000     1.271000000    -0.244000000
H     0.227000000     2.304000000    -0.573000000
C    -0.050000000     0.967000000     1.086000000
H    -0.122000000     1.714000000     1.872000000
C    -0.165000000    -0.359000000     1.532000000
C    -0.542000000    -0.639000000     2.980000000
O    -0.695000000     0.329000000     3.725000000
O    -0.955000000    -1.754000000     3.348000000
