17
-83.18332
C    -0.008000000    -1.064000000     1.035000000
H     0.125000000    -1.993000000     1.584000000
C     0.495000000    -1.187000000    -0.260000000
H     1.017000000    -2.090000000    -0.566000000
C     0.433000000    -0.106000000    -1.158000000
C     1.118000000    -0.189000000    -2.514000000
H     0.567000000     0.495000000    -3.164000000
H     2.181000000     0.060000000    -2.511000000
H     1.117000000    -1.260000000    -2.724000000
C    -0.268000000     1.039000000    -0.799000000
H    -0.454000000     1.882000000    -1.460000000
C    -0.726000000     1.170000000     0.520000000
H    -1.157000000     2.120000000     0.825000000
C    -0.623000000     0.117000000     1.482000000
C    -1.234000000     0.281000000     2.829000000
O    -1.221000000     1.366000000     3.322000000
O    -1.356000000    -0.647000000     3.562000000
