17
-101.29935
C    -0.415000000    -0.977000000    -1.051000000
H    -0.543000000    -1.676000000    -1.873000000
C     0.268000000     0.230000000    -1.228000000
H     0.470000000     0.520000000    -2.257000000
C     0.570000000     1.072000000    -0.179000000
C     1.375000000     2.298000000    -0.457000000
H     2.208000000     2.264000000     0.248000000
H     1.656000000     2.328000000    -1.512000000
H     0.885000000     3.256000000    -0.268000000
C     0.237000000     0.713000000     1.099000000
H     0.467000000     1.354000000     1.946000000
C    -0.542000000    -0.421000000     1.297000000
H    -0.838000000    -0.701000000     2.305000000
C    -0.891000000    -1.292000000     0.216000000
C    -1.464000000    -2.648000000     0.497000000
O    -1.961000000    -2.824000000     1.608000000
O    -1.487000000    -3.502000000    -0.394000000
