17
-91.99269
C    -1.111000000    -0.957000000    -0.351000000
H    -1.950000000    -1.550000000    -0.707000000
C    -0.606000000    -0.012000000    -1.221000000
H    -1.085000000     0.071000000    -2.193000000
C     0.396000000     0.827000000    -0.742000000
C     0.960000000     2.010000000    -1.564000000
H     0.303000000     2.430000000    -2.330000000
H     1.207000000     2.876000000    -0.946000000
H     1.827000000     1.626000000    -2.104000000
C     0.868000000     0.723000000     0.570000000
H     1.643000000     1.425000000     0.865000000
C     0.427000000    -0.286000000     1.360000000
H     0.911000000    -0.303000000     2.333000000
C    -0.575000000    -1.133000000     0.917000000
C    -0.934000000    -2.297000000     1.765000000
O    -0.614000000    -2.284000000     2.955000000
O    -1.666000000    -3.173000000     1.401000000
