17
-91.74283
C    -0.765000000    -1.169000000    -0.425000000
H    -1.443000000    -1.888000000    -0.878000000
C    -0.674000000     0.009000000    -1.088000000
H    -1.149000000     0.107000000    -2.061000000
C     0.102000000     1.086000000    -0.604000000
C     0.322000000     2.339000000    -1.345000000
H    -0.623000000     2.817000000    -1.609000000
H     1.026000000     3.046000000    -0.901000000
H     0.761000000     2.065000000    -2.306000000
C     0.808000000     0.851000000     0.568000000
H     1.444000000     1.671000000     0.892000000
C     0.674000000    -0.324000000     1.254000000
H     1.227000000    -0.556000000     2.161000000
C    -0.157000000    -1.358000000     0.801000000
C    -0.356000000    -2.610000000     1.592000000
O    -0.031000000    -2.691000000     2.775000000
O    -1.164000000    -3.387000000     1.168000000
