17
-91.60374
C    -0.713000000    -0.338000000    -1.254000000
H    -1.126000000    -0.704000000    -2.191000000
C     0.645000000    -0.459000000    -1.044000000
H     1.220000000    -0.904000000    -1.853000000
C     1.204000000    -0.078000000     0.146000000
C     2.692000000     0.035000000     0.346000000
H     2.973000000    -0.607000000     1.184000000
H     3.222000000    -0.178000000    -0.585000000
H     3.085000000     1.050000000     0.434000000
C     0.386000000     0.405000000     1.182000000
H     0.811000000     0.703000000     2.137000000
C    -0.953000000     0.334000000     1.067000000
H    -1.611000000     0.576000000     1.897000000
C    -1.576000000     0.092000000    -0.213000000
C    -3.012000000     0.120000000    -0.425000000
O    -3.765000000     0.490000000     0.510000000
O    -3.475000000    -0.537000000    -1.343000000
