17
-99.58556
C    -0.747000000    -0.364000000     1.202000000
H    -1.301000000    -0.733000000     2.061000000
C     0.596000000    -0.167000000     1.138000000
H     1.155000000    -0.364000000     2.049000000
C     1.242000000     0.243000000    -0.063000000
C     2.760000000     0.056000000    -0.208000000
H     2.898000000    -0.841000000    -0.815000000
H     3.252000000     0.915000000    -0.668000000
H     3.286000000    -0.129000000     0.731000000
C     0.428000000     0.496000000    -1.168000000
H     0.894000000     0.729000000    -2.122000000
C    -0.976000000     0.352000000    -1.119000000
H    -1.594000000     0.707000000    -1.940000000
C    -1.611000000    -0.066000000     0.073000000
C    -3.049000000    -0.236000000     0.244000000
O    -3.740000000     0.052000000    -0.734000000
O    -3.499000000    -0.648000000     1.331000000
