17
-97.00385
C     0.028000000    -1.476000000    -0.178000000
H     0.168000000    -2.530000000    -0.407000000
C     0.827000000    -0.601000000    -0.913000000
H     1.648000000    -0.825000000    -1.589000000
C     0.701000000     0.786000000    -0.622000000
C     1.495000000     1.797000000    -1.339000000
H     2.310000000     1.299000000    -1.868000000
H     0.811000000     2.315000000    -2.014000000
H     1.941000000     2.538000000    -0.672000000
C    -0.169000000     1.187000000     0.339000000
H    -0.220000000     2.258000000     0.516000000
C    -0.992000000     0.299000000     1.042000000
H    -1.575000000     0.673000000     1.880000000
C    -0.963000000    -1.051000000     0.758000000
C    -1.797000000    -1.967000000     1.521000000
O    -2.164000000    -1.715000000     2.675000000
O    -2.046000000    -2.982000000     0.877000000
