17
-99.62708
C    -0.735000000    -0.556000000    -1.140000000
H    -1.227000000    -0.992000000    -2.005000000
C     0.589000000    -0.074000000    -1.126000000
H     1.182000000    -0.103000000    -2.036000000
C     1.178000000     0.424000000    -0.011000000
C     2.573000000     0.965000000    -0.162000000
H     2.680000000     1.338000000    -1.183000000
H     2.741000000     1.718000000     0.611000000
H     3.235000000     0.124000000     0.052000000
C     0.468000000     0.443000000     1.186000000
H     0.902000000     0.745000000     2.135000000
C    -0.925000000     0.052000000     1.154000000
H    -1.460000000     0.082000000     2.100000000
C    -1.495000000    -0.496000000     0.000000000
C    -2.864000000    -1.101000000     0.096000000
O    -3.565000000    -0.693000000     1.067000000
O    -3.270000000    -1.873000000    -0.746000000
