17
-89.46635
C    -0.046000000     0.166000000    -1.484000000
H     0.131000000     0.260000000    -2.552000000
C     0.818000000     0.919000000    -0.646000000
H     1.598000000     1.567000000    -1.038000000
C     0.603000000     0.739000000     0.745000000
C     1.479000000     1.379000000     1.836000000
H     1.022000000     1.717000000     2.768000000
H     2.290000000     0.720000000     2.152000000
H     2.024000000     2.201000000     1.368000000
C    -0.310000000    -0.154000000     1.213000000
H    -0.291000000    -0.301000000     2.290000000
C    -1.031000000    -0.999000000     0.346000000
H    -1.632000000    -1.785000000     0.797000000
C    -0.910000000    -0.807000000    -1.041000000
C    -1.670000000    -1.681000000    -2.009000000
O    -2.413000000    -2.495000000    -1.564000000
O    -1.661000000    -1.438000000    -3.179000000
