17
-94.73711
C    -0.556000000    -1.394000000     0.145000000
H    -0.812000000    -2.436000000     0.319000000
C     0.635000000    -0.930000000     0.661000000
H     1.316000000    -1.598000000     1.183000000
C     1.084000000     0.387000000     0.522000000
C     2.301000000     1.015000000     1.104000000
H     1.968000000     1.972000000     1.512000000
H     2.684000000     0.462000000     1.964000000
H     3.022000000     1.287000000     0.330000000
C     0.353000000     1.156000000    -0.373000000
H     0.686000000     2.181000000    -0.511000000
C    -0.877000000     0.729000000    -0.845000000
H    -1.582000000     1.373000000    -1.364000000
C    -1.334000000    -0.530000000    -0.579000000
C    -2.640000000    -1.097000000    -1.162000000
O    -3.552000000    -0.331000000    -1.305000000
O    -2.688000000    -2.248000000    -1.609000000
