17
-93.42454
C    -1.041000000    -0.196000000     1.016000000
H    -1.718000000    -0.309000000     1.859000000
C     0.318000000     0.081000000     1.322000000
H     0.681000000     0.143000000     2.345000000
C     1.166000000     0.325000000     0.241000000
C     2.639000000     0.367000000     0.446000000
H     3.100000000    -0.477000000    -0.072000000
H     3.078000000     1.253000000    -0.016000000
H     2.894000000     0.369000000     1.508000000
C     0.657000000     0.282000000    -1.061000000
H     1.248000000     0.473000000    -1.953000000
C    -0.635000000    -0.008000000    -1.306000000
H    -0.944000000    -0.154000000    -2.338000000
C    -1.539000000    -0.232000000    -0.237000000
C    -2.931000000    -0.554000000    -0.498000000
O    -3.405000000    -0.243000000    -1.578000000
O    -3.572000000    -1.125000000     0.327000000
