17
-97.96572
C     0.101000000     0.373000000    -1.408000000
H     0.171000000     0.755000000    -2.424000000
C     0.373000000     1.196000000    -0.331000000
H     0.617000000     2.229000000    -0.564000000
C     0.284000000     0.733000000     0.975000000
C     0.469000000     1.639000000     2.107000000
H     0.740000000     0.988000000     2.942000000
H     1.218000000     2.414000000     1.929000000
H    -0.413000000     2.197000000     2.428000000
C    -0.142000000    -0.553000000     1.207000000
H    -0.384000000    -0.999000000     2.168000000
C    -0.321000000    -1.394000000     0.132000000
H    -0.732000000    -2.377000000     0.347000000
C    -0.189000000    -0.985000000    -1.242000000
C    -0.506000000    -1.839000000    -2.441000000
O    -0.689000000    -3.035000000    -2.267000000
O    -0.599000000    -1.336000000    -3.557000000
