17
-98.15706
C    -0.312000000     0.833000000    -1.114000000
H    -0.309000000     1.578000000    -1.905000000
C    -0.349000000     1.189000000     0.190000000
H    -0.604000000     2.224000000     0.401000000
C    -0.220000000     0.238000000     1.205000000
C    -0.213000000     0.841000000     2.582000000
H    -1.153000000     1.385000000     2.692000000
H    -0.136000000     0.044000000     3.325000000
H     0.623000000     1.544000000     2.594000000
C     0.049000000    -1.109000000     0.887000000
H     0.266000000    -1.811000000     1.689000000
C     0.154000000    -1.471000000    -0.471000000
H     0.462000000    -2.488000000    -0.698000000
C     0.102000000    -0.451000000    -1.469000000
C     0.474000000    -0.748000000    -2.917000000
O     0.737000000    -1.925000000    -3.185000000
O     0.423000000     0.130000000    -3.813000000
