17
-97.40330
C     0.000000000     0.630000000    -1.359000000
H     0.037000000     1.241000000    -2.257000000
C     0.711000000     1.157000000    -0.283000000
H     1.243000000     2.103000000    -0.355000000
C     0.653000000     0.511000000     0.944000000
C     1.092000000     1.130000000     2.230000000
H     2.081000000     1.579000000     2.118000000
H     0.309000000     1.833000000     2.522000000
H     1.033000000     0.368000000     3.011000000
C     0.137000000    -0.788000000     1.053000000
H     0.121000000    -1.417000000     1.940000000
C    -0.569000000    -1.329000000    -0.075000000
H    -1.055000000    -2.296000000     0.031000000
C    -0.712000000    -0.583000000    -1.274000000
C    -1.481000000    -1.211000000    -2.444000000
O    -2.209000000    -2.184000000    -2.252000000
O    -1.389000000    -0.745000000    -3.557000000
