17
-99.84460
C    -0.222000000     0.541000000    -1.296000000
H    -0.335000000     1.062000000    -2.244000000
C     0.308000000     1.254000000    -0.233000000
H     0.554000000     2.305000000    -0.355000000
C     0.570000000     0.539000000     0.929000000
C     1.190000000     1.320000000     1.969000000
H     2.134000000     0.831000000     2.218000000
H     1.448000000     2.362000000     1.768000000
H     0.598000000     1.336000000     2.886000000
C     0.108000000    -0.775000000     1.144000000
H     0.309000000    -1.275000000     2.087000000
C    -0.557000000    -1.433000000     0.070000000
H    -1.015000000    -2.412000000     0.186000000
C    -0.698000000    -0.766000000    -1.158000000
C    -1.266000000    -1.491000000    -2.358000000
O    -1.768000000    -2.598000000    -2.232000000
O    -1.361000000    -0.806000000    -3.382000000
