17
-94.28078
C    -0.512000000    -0.698000000     1.194000000
H    -0.698000000    -1.333000000     2.057000000
C     0.730000000    -0.136000000     1.125000000
H     1.429000000    -0.284000000     1.944000000
C     1.024000000     0.582000000     0.007000000
C     2.406000000     1.189000000    -0.213000000
H     3.071000000     0.462000000    -0.684000000
H     2.317000000     2.105000000    -0.799000000
H     2.852000000     1.443000000     0.751000000
C     0.124000000     0.721000000    -1.038000000
H     0.371000000     1.220000000    -1.971000000
C    -1.088000000     0.109000000    -1.032000000
H    -1.754000000     0.102000000    -1.891000000
C    -1.404000000    -0.574000000     0.112000000
C    -2.632000000    -1.390000000     0.128000000
O    -3.167000000    -1.731000000    -0.901000000
O    -3.067000000    -1.791000000     1.212000000
