17
-79.05427
C     0.248000000    -1.019000000     1.141000000
H     0.423000000    -1.806000000     1.870000000
C     1.201000000    -0.168000000     0.615000000
H     2.211000000    -0.087000000     1.006000000
C     0.827000000     0.835000000    -0.356000000
C     1.787000000     1.832000000    -0.875000000
H     2.187000000     1.601000000    -1.864000000
H     1.255000000     2.784000000    -0.832000000
H     2.709000000     1.878000000    -0.291000000
C    -0.448000000     0.781000000    -0.970000000
H    -0.650000000     1.403000000    -1.838000000
C    -1.308000000    -0.166000000    -0.473000000
H    -2.234000000    -0.253000000    -1.037000000
C    -1.035000000    -0.982000000     0.613000000
C    -2.111000000    -1.931000000     1.005000000
O    -3.226000000    -1.804000000     0.673000000
O    -1.838000000    -2.894000000     1.612000000
