17
-87.99702
C    -0.670000000    -0.941000000     0.965000000
H    -1.236000000    -1.513000000     1.695000000
C    -0.829000000     0.439000000     0.962000000
H    -1.566000000     0.932000000     1.590000000
C    -0.043000000     1.170000000     0.089000000
C    -0.245000000     2.653000000     0.034000000
H     0.540000000     3.146000000     0.612000000
H    -0.209000000     2.991000000    -1.004000000
H    -1.221000000     3.040000000     0.335000000
C     0.908000000     0.595000000    -0.687000000
H     1.568000000     1.256000000    -1.243000000
C     1.050000000    -0.777000000    -0.785000000
H     1.661000000    -1.364000000    -1.467000000
C     0.113000000    -1.545000000    -0.030000000
C     0.059000000    -2.992000000    -0.298000000
O     0.861000000    -3.441000000    -1.039000000
O    -0.743000000    -3.656000000     0.272000000
