17
-85.48230
C     0.367000000    -1.234000000    -0.705000000
H     0.819000000    -2.022000000    -1.302000000
C     1.226000000    -0.210000000    -0.322000000
H     2.292000000    -0.244000000    -0.533000000
C     0.725000000     0.905000000     0.333000000
C     1.661000000     2.038000000     0.626000000
H     2.396000000     1.745000000     1.378000000
H     2.078000000     2.300000000    -0.349000000
H     1.083000000     2.922000000     0.900000000
C    -0.638000000     0.994000000     0.597000000
H    -1.038000000     1.885000000     1.075000000
C    -1.505000000    -0.020000000     0.282000000
H    -2.467000000    -0.064000000     0.787000000
C    -0.929000000    -1.141000000    -0.392000000
C    -1.824000000    -2.303000000    -0.741000000
O    -2.759000000    -2.481000000    -0.056000000
O    -1.494000000    -3.068000000    -1.581000000
