17
-85.39438
C     0.314000000    -1.219000000     0.672000000
H     0.622000000    -2.079000000     1.261000000
C     0.870000000     0.052000000     0.919000000
H     1.712000000     0.138000000     1.602000000
C     0.530000000     1.136000000     0.168000000
C     1.198000000     2.447000000     0.400000000
H     0.474000000     3.230000000     0.631000000
H     1.860000000     2.294000000     1.255000000
H     1.775000000     2.820000000    -0.450000000
C    -0.386000000     0.914000000    -0.889000000
H    -0.534000000     1.763000000    -1.552000000
C    -1.087000000    -0.298000000    -1.099000000
H    -1.898000000    -0.380000000    -1.818000000
C    -0.733000000    -1.410000000    -0.297000000
C    -1.319000000    -2.814000000    -0.354000000
O    -2.415000000    -2.839000000    -0.804000000
O    -0.986000000    -3.753000000     0.348000000
