17
-98.13713
C     0.255000000    -1.147000000    -0.887000000
H     0.479000000    -1.997000000    -1.527000000
C     0.693000000     0.171000000    -1.119000000
H     1.400000000     0.354000000    -1.924000000
C     0.315000000     1.192000000    -0.250000000
C     0.908000000     2.521000000    -0.506000000
H     0.209000000     3.088000000    -1.125000000
H     1.037000000     3.084000000     0.421000000
H     1.862000000     2.448000000    -1.032000000
C    -0.384000000     0.889000000     0.924000000
H    -0.643000000     1.614000000     1.691000000
C    -0.773000000    -0.464000000     1.188000000
H    -1.270000000    -0.664000000     2.134000000
C    -0.494000000    -1.487000000     0.313000000
C    -1.095000000    -2.825000000     0.499000000
O    -1.428000000    -3.146000000     1.626000000
O    -1.076000000    -3.631000000    -0.421000000
