17
-79.86808
C    -0.718000000    -1.003000000    -0.771000000
H    -1.131000000    -1.742000000    -1.453000000
C    -0.016000000     0.083000000    -1.291000000
H     0.047000000     0.285000000    -2.358000000
C     0.696000000     0.867000000    -0.446000000
C     1.300000000     2.000000000    -1.055000000
H     0.524000000     2.493000000    -1.645000000
H     1.663000000     2.738000000    -0.336000000
H     2.122000000     1.616000000    -1.663000000
C     0.694000000     0.739000000     0.884000000
H     1.250000000     1.419000000     1.525000000
C    -0.039000000    -0.322000000     1.367000000
H    -0.064000000    -0.461000000     2.445000000
C    -0.771000000    -1.175000000     0.595000000
C    -1.669000000    -2.199000000     1.243000000
O    -1.911000000    -2.154000000     2.382000000
O    -1.976000000    -3.182000000     0.582000000
