17
-91.31273
C    -0.846000000    -0.933000000    -0.693000000
H    -1.380000000    -1.615000000    -1.350000000
C     0.038000000    -0.050000000    -1.293000000
H     0.263000000    -0.016000000    -2.356000000
C     0.693000000     0.902000000    -0.515000000
C     1.734000000     1.780000000    -1.204000000
H     1.286000000     2.439000000    -1.951000000
H     2.242000000     2.402000000    -0.464000000
H     2.599000000     1.257000000    -1.615000000
C     0.557000000     0.792000000     0.886000000
H     1.069000000     1.581000000     1.430000000
C    -0.245000000    -0.195000000     1.469000000
H    -0.361000000    -0.260000000     2.548000000
C    -0.989000000    -1.042000000     0.675000000
C    -1.877000000    -2.129000000     1.299000000
O    -2.086000000    -2.212000000     2.525000000
O    -2.692000000    -2.706000000     0.614000000
