17
-93.82208
C    -0.646000000     1.114000000     0.727000000
H    -1.325000000     1.794000000     1.235000000
C    -0.988000000     0.651000000    -0.540000000
H    -1.859000000     1.048000000    -1.054000000
C    -0.175000000    -0.257000000    -1.219000000
C    -0.547000000    -0.748000000    -2.515000000
H    -0.125000000    -1.732000000    -2.729000000
H    -1.632000000    -0.819000000    -2.421000000
H    -0.368000000    -0.084000000    -3.364000000
C     0.920000000    -0.803000000    -0.586000000
H     1.518000000    -1.554000000    -1.096000000
C     1.175000000    -0.472000000     0.778000000
H     1.969000000    -1.066000000     1.224000000
C     0.420000000     0.509000000     1.466000000
C     0.521000000     0.755000000     2.955000000
O     1.200000000    -0.015000000     3.602000000
O    -0.061000000     1.671000000     3.533000000
