17
-97.33603
C    -1.102000000     0.708000000     0.683000000
H    -2.001000000     1.174000000     1.078000000
C    -1.170000000     0.027000000    -0.537000000
H    -2.051000000     0.185000000    -1.154000000
C    -0.077000000    -0.619000000    -1.079000000
C    -0.174000000    -1.230000000    -2.461000000
H     0.804000000    -1.677000000    -2.654000000
H    -0.880000000    -2.061000000    -2.404000000
H    -0.488000000    -0.519000000    -3.227000000
C     1.146000000    -0.662000000    -0.331000000
H     2.094000000    -1.087000000    -0.651000000
C     1.188000000     0.053000000     0.875000000
H     2.150000000     0.068000000     1.380000000
C     0.080000000     0.707000000     1.406000000
C     0.174000000     1.523000000     2.648000000
O     1.193000000     1.470000000     3.329000000
O    -0.878000000     1.934000000     3.093000000
