17
-92.97517
C    -0.901000000     0.627000000     0.935000000
H    -1.680000000     1.100000000     1.527000000
C    -1.069000000     0.634000000    -0.459000000
H    -1.943000000     0.950000000    -1.023000000
C    -0.121000000    -0.047000000    -1.202000000
C    -0.299000000    -0.052000000    -2.728000000
H     0.732000000     0.003000000    -3.081000000
H    -0.777000000    -0.966000000    -3.087000000
H    -0.839000000     0.855000000    -3.007000000
C     0.961000000    -0.639000000    -0.598000000
H     1.804000000    -1.106000000    -1.102000000
C     1.129000000    -0.585000000     0.771000000
H     1.931000000    -1.158000000     1.228000000
C     0.167000000     0.102000000     1.546000000
C     0.223000000     0.054000000     3.029000000
O     0.975000000    -0.737000000     3.561000000
O    -0.285000000     0.970000000     3.694000000
