17
-96.33587
C    -1.207000000    -0.766000000     0.651000000
H    -1.963000000    -1.255000000     1.260000000
C     0.179000000    -0.889000000     0.934000000
H     0.536000000    -1.543000000     1.726000000
C     1.151000000    -0.129000000     0.366000000
C     2.655000000    -0.280000000     0.731000000
H     3.154000000    -0.531000000    -0.208000000
H     3.109000000     0.662000000     1.043000000
H     2.870000000    -1.084000000     1.438000000
C     0.811000000     0.739000000    -0.672000000
H     1.605000000     1.288000000    -1.171000000
C    -0.546000000     0.811000000    -1.080000000
H    -0.723000000     1.501000000    -1.902000000
C    -1.574000000     0.093000000    -0.411000000
C    -2.968000000     0.392000000    -0.777000000
O    -3.251000000     1.375000000    -1.482000000
O    -3.838000000    -0.389000000    -0.449000000
