17
-93.00254
C    -1.403000000    -0.522000000    -0.241000000
H    -2.410000000    -0.765000000    -0.569000000
C    -0.569000000    -0.013000000    -1.228000000
H    -0.920000000     0.135000000    -2.246000000
C     0.712000000     0.423000000    -0.864000000
C     1.725000000     1.049000000    -1.864000000
H     1.960000000     2.072000000    -1.563000000
H     2.624000000     0.443000000    -1.999000000
H     1.164000000     1.119000000    -2.798000000
C     1.137000000     0.315000000     0.448000000
H     2.168000000     0.511000000     0.733000000
C     0.329000000    -0.144000000     1.408000000
H     0.755000000    -0.132000000     2.408000000
C    -0.926000000    -0.679000000     1.049000000
C    -1.872000000    -1.251000000     2.157000000
O    -1.432000000    -1.191000000     3.285000000
O    -3.042000000    -1.365000000     1.882000000
