17
-91.55445
C    -0.978000000    -0.565000000     0.963000000
H    -1.700000000    -1.004000000     1.646000000
C     0.431000000    -0.450000000     1.225000000
H     0.950000000    -0.902000000     2.067000000
C     1.244000000     0.097000000     0.208000000
C     2.742000000     0.137000000     0.316000000
H     2.936000000    -0.735000000     0.945000000
H     3.304000000    -0.081000000    -0.594000000
H     3.102000000     1.004000000     0.873000000
C     0.647000000     0.581000000    -0.941000000
H     1.245000000     0.969000000    -1.762000000
C    -0.730000000     0.520000000    -1.202000000
H    -1.179000000     0.784000000    -2.156000000
C    -1.555000000    -0.078000000    -0.201000000
C    -3.062000000    -0.102000000    -0.369000000
O    -3.558000000     0.664000000    -1.204000000
O    -3.841000000    -0.831000000     0.186000000
