17
-95.55325
C    -0.653000000     1.192000000     0.592000000
H    -1.273000000     2.008000000     0.954000000
C    -0.881000000     0.693000000    -0.719000000
H    -1.617000000     1.139000000    -1.383000000
C    -0.223000000    -0.449000000    -1.145000000
C    -0.328000000    -0.918000000    -2.557000000
H     0.300000000    -0.270000000    -3.172000000
H     0.019000000    -1.933000000    -2.758000000
H    -1.382000000    -0.873000000    -2.839000000
C     0.683000000    -1.047000000    -0.289000000
H     1.273000000    -1.895000000    -0.628000000
C     0.920000000    -0.582000000     0.966000000
H     1.553000000    -1.155000000     1.639000000
C     0.226000000     0.524000000     1.451000000
C     0.454000000     1.063000000     2.885000000
O     0.735000000     0.301000000     3.815000000
O     0.193000000     2.195000000     3.195000000
