17
-88.21317
C     0.661000000     0.919000000     1.017000000
H     0.924000000     1.744000000     1.675000000
C    -0.044000000     1.277000000    -0.127000000
H    -0.194000000     2.344000000    -0.276000000
C    -0.357000000     0.332000000    -1.094000000
C    -0.977000000     0.793000000    -2.389000000
H    -1.358000000    -0.108000000    -2.874000000
H    -1.825000000     1.467000000    -2.251000000
H    -0.231000000     1.180000000    -3.086000000
C    -0.407000000    -1.009000000    -0.772000000
H    -0.668000000    -1.764000000    -1.509000000
C     0.125000000    -1.440000000     0.474000000
H     0.011000000    -2.497000000     0.697000000
C     0.627000000    -0.456000000     1.376000000
C     1.155000000    -0.854000000     2.690000000
O     1.115000000    -1.987000000     3.029000000
O     1.445000000     0.063000000     3.422000000
