17
-95.94348
C     1.413000000     0.488000000     0.037000000
H     2.407000000     0.927000000     0.044000000
C     0.358000000     1.057000000    -0.683000000
H     0.495000000     2.007000000    -1.193000000
C    -0.935000000     0.484000000    -0.644000000
C    -2.081000000     1.195000000    -1.399000000
H    -1.920000000     2.273000000    -1.464000000
H    -2.016000000     0.889000000    -2.446000000
H    -3.035000000     0.950000000    -0.927000000
C    -1.164000000    -0.634000000     0.171000000
H    -2.144000000    -1.103000000     0.167000000
C    -0.118000000    -1.254000000     0.895000000
H    -0.327000000    -2.192000000     1.403000000
C     1.166000000    -0.653000000     0.794000000
C     2.344000000    -1.279000000     1.509000000
O     2.149000000    -2.381000000     2.082000000
O     3.403000000    -0.773000000     1.647000000
