17
-94.22483
C     0.215000000     1.314000000     0.618000000
H     0.618000000     2.293000000     0.863000000
C    -0.472000000     1.124000000    -0.603000000
H    -0.530000000     1.941000000    -1.317000000
C    -0.641000000    -0.147000000    -1.054000000
C    -1.182000000    -0.453000000    -2.430000000
H    -1.092000000    -1.533000000    -2.568000000
H    -2.229000000    -0.172000000    -2.552000000
H    -0.571000000     0.126000000    -3.125000000
C    -0.309000000    -1.176000000    -0.198000000
H    -0.403000000    -2.200000000    -0.551000000
C     0.204000000    -1.046000000     1.060000000
H     0.606000000    -1.895000000     1.607000000
C     0.585000000     0.233000000     1.440000000
C     1.529000000     0.467000000     2.588000000
O     1.620000000    -0.434000000     3.452000000
O     2.055000000     1.564000000     2.772000000
