17
-85.95006
C    -0.747000000     0.026000000     1.227000000
H    -1.187000000     0.141000000     2.214000000
C     0.614000000    -0.094000000     1.176000000
H     1.260000000     0.039000000     2.040000000
C     1.202000000    -0.191000000    -0.059000000
C     2.644000000    -0.044000000    -0.158000000
H     2.824000000     1.017000000    -0.346000000
H     3.082000000    -0.286000000     0.813000000
H     3.053000000    -0.728000000    -0.905000000
C     0.464000000    -0.110000000    -1.246000000
H     0.912000000    -0.051000000    -2.235000000
C    -0.910000000    -0.162000000    -1.174000000
H    -1.532000000    -0.018000000    -2.054000000
C    -1.531000000    -0.030000000     0.083000000
C    -2.985000000     0.197000000     0.189000000
O    -3.583000000    -0.065000000    -0.802000000
O    -3.588000000     0.365000000     1.232000000
