17
-97.13679
C     1.312000000    -0.061000000     0.661000000
H     2.342000000    -0.122000000     1.001000000
C     1.087000000    -0.375000000    -0.674000000
H     1.923000000    -0.607000000    -1.329000000
C    -0.187000000    -0.221000000    -1.198000000
C    -0.521000000    -0.619000000    -2.616000000
H    -0.737000000     0.299000000    -3.167000000
H     0.352000000    -1.163000000    -2.983000000
H    -1.375000000    -1.299000000    -2.608000000
C    -1.289000000     0.192000000    -0.380000000
H    -2.218000000     0.461000000    -0.874000000
C    -1.052000000     0.540000000     0.939000000
H    -1.841000000     0.841000000     1.622000000
C     0.258000000     0.371000000     1.499000000
C     0.555000000     0.617000000     2.972000000
O    -0.335000000     0.539000000     3.783000000
O     1.724000000     0.612000000     3.350000000
