17
-90.64271
C     0.778000000     1.237000000     0.228000000
H     1.408000000     2.118000000     0.321000000
C     1.022000000     0.288000000    -0.754000000
H     1.857000000     0.629000000    -1.360000000
C     0.217000000    -0.846000000    -0.872000000
C     0.698000000    -1.917000000    -1.847000000
H    -0.117000000    -1.989000000    -2.571000000
H     1.592000000    -1.561000000    -2.364000000
H     0.751000000    -2.879000000    -1.332000000
C    -0.925000000    -0.978000000    -0.109000000
H    -1.570000000    -1.852000000    -0.157000000
C    -1.173000000    -0.041000000     0.865000000
H    -2.049000000    -0.183000000     1.493000000
C    -0.349000000     1.071000000     1.078000000
C    -0.708000000     2.098000000     2.115000000
O    -1.434000000     1.737000000     2.993000000
O     0.005000000     3.076000000     2.280000000
