17
-96.44942
C     1.393000000     0.259000000     0.402000000
H     2.429000000     0.313000000     0.727000000
C     0.993000000    -0.297000000    -0.795000000
H     1.805000000    -0.598000000    -1.453000000
C    -0.346000000    -0.614000000    -1.067000000
C    -0.743000000    -1.147000000    -2.430000000
H    -1.822000000    -1.279000000    -2.529000000
H    -0.362000000    -0.465000000    -3.194000000
H    -0.205000000    -2.088000000    -2.564000000
C    -1.278000000    -0.269000000    -0.114000000
H    -2.327000000    -0.545000000    -0.181000000
C    -0.955000000     0.391000000     1.082000000
H    -1.670000000     0.623000000     1.867000000
C     0.412000000     0.736000000     1.345000000
C     0.795000000     1.503000000     2.598000000
O    -0.045000000     1.618000000     3.477000000
O     1.932000000     1.857000000     2.833000000
