17
-90.69567
C     1.057000000     1.063000000     0.039000000
H     1.686000000     1.947000000    -0.026000000
C     0.187000000     0.743000000    -1.025000000
H     0.278000000     1.349000000    -1.923000000
C    -0.704000000    -0.314000000    -0.960000000
C    -1.629000000    -0.611000000    -2.135000000
H    -1.096000000    -1.242000000    -2.850000000
H    -2.535000000    -1.157000000    -1.866000000
H    -1.910000000     0.182000000    -2.832000000
C    -0.659000000    -1.141000000     0.144000000
H    -1.287000000    -2.021000000     0.263000000
C     0.179000000    -0.835000000     1.270000000
H     0.111000000    -1.461000000     2.156000000
C     0.935000000     0.311000000     1.284000000
C     1.673000000     0.872000000     2.467000000
O     1.210000000     0.599000000     3.593000000
O     2.498000000     1.715000000     2.405000000
