17
-99.15260
C    -0.080000000     1.275000000     0.706000000
H    -0.029000000     2.241000000     1.201000000
C     0.672000000     1.008000000    -0.405000000
H     1.304000000     1.740000000    -0.901000000
C     0.649000000    -0.174000000    -1.079000000
C     1.488000000    -0.510000000    -2.258000000
H     1.089000000    -0.093000000    -3.185000000
H     2.496000000    -0.156000000    -2.034000000
H     1.493000000    -1.595000000    -2.390000000
C    -0.144000000    -1.199000000    -0.527000000
H    -0.084000000    -2.206000000    -0.932000000
C    -0.930000000    -0.919000000     0.645000000
H    -1.528000000    -1.729000000     1.054000000
C    -0.888000000     0.287000000     1.328000000
C    -1.666000000     0.589000000     2.582000000
O    -2.512000000    -0.183000000     3.024000000
O    -1.338000000     1.619000000     3.178000000
