17
-81.71547
C     0.106000000     1.275000000    -0.668000000
H     0.145000000     2.247000000    -1.152000000
C     0.215000000     0.065000000    -1.352000000
H     0.539000000     0.076000000    -2.390000000
C     0.113000000    -1.079000000    -0.604000000
C     0.358000000    -2.438000000    -1.180000000
H    -0.525000000    -3.074000000    -1.095000000
H     0.779000000    -2.371000000    -2.185000000
H     1.149000000    -2.970000000    -0.647000000
C    -0.246000000    -1.031000000     0.762000000
H    -0.515000000    -1.912000000     1.339000000
C    -0.303000000     0.170000000     1.410000000
H    -0.599000000     0.302000000     2.447000000
C    -0.182000000     1.369000000     0.648000000
C    -0.367000000     2.723000000     1.305000000
O    -0.846000000     2.921000000     2.420000000
O     0.181000000     3.720000000     0.934000000
