17
-97.54439
C     0.346000000     1.266000000     0.712000000
H     0.665000000     2.071000000     1.368000000
C     1.242000000     0.312000000     0.282000000
H     2.300000000     0.482000000     0.465000000
C     0.798000000    -0.931000000    -0.272000000
C     1.812000000    -1.956000000    -0.707000000
H     2.767000000    -1.763000000    -0.213000000
H     1.478000000    -2.979000000    -0.520000000
H     1.859000000    -2.014000000    -1.796000000
C    -0.561000000    -1.054000000    -0.515000000
H    -0.915000000    -1.962000000    -0.996000000
C    -1.440000000    -0.016000000    -0.183000000
H    -2.453000000    -0.103000000    -0.568000000
C    -0.998000000     1.109000000     0.447000000
C    -2.026000000     2.198000000     0.758000000
O    -3.216000000     2.140000000     0.407000000
O    -1.662000000     3.205000000     1.337000000
