17
-91.97991
C     0.193000000     1.466000000     0.227000000
H     0.262000000     2.492000000     0.581000000
C     1.100000000     0.487000000     0.699000000
H     1.911000000     0.843000000     1.328000000
C     0.864000000    -0.859000000     0.421000000
C     1.668000000    -1.983000000     0.826000000
H     1.216000000    -2.955000000     0.618000000
H     2.639000000    -1.956000000     0.326000000
H     1.695000000    -1.983000000     1.917000000
C    -0.245000000    -1.202000000    -0.408000000
H    -0.393000000    -2.239000000    -0.697000000
C    -1.123000000    -0.185000000    -0.828000000
H    -2.021000000    -0.440000000    -1.384000000
C    -0.947000000     1.180000000    -0.556000000
C    -1.994000000     2.176000000    -0.930000000
O    -2.646000000     1.998000000    -1.899000000
O    -2.179000000     3.163000000    -0.240000000
