17
-93.60503
C    -0.476000000     1.044000000     0.926000000
H    -0.787000000     1.687000000     1.745000000
C     0.265000000    -0.055000000     1.317000000
H     0.522000000    -0.227000000     2.359000000
C     0.607000000    -0.994000000     0.345000000
C     1.306000000    -2.302000000     0.737000000
H     1.303000000    -2.410000000     1.823000000
H     0.833000000    -3.181000000     0.295000000
H     2.325000000    -2.281000000     0.344000000
C     0.130000000    -0.861000000    -0.979000000
H     0.310000000    -1.674000000    -1.677000000
C    -0.551000000     0.326000000    -1.379000000
H    -0.877000000     0.518000000    -2.398000000
C    -0.740000000     1.314000000    -0.414000000
C    -1.304000000     2.654000000    -0.855000000
O    -1.636000000     2.737000000    -1.990000000
O    -1.235000000     3.702000000    -0.201000000
