17
-97.42199
C     0.061000000     1.395000000    -0.374000000
H    -0.009000000     2.471000000    -0.514000000
C     0.253000000     0.964000000     0.930000000
H     0.477000000     1.558000000     1.812000000
C     0.280000000    -0.424000000     1.123000000
C     0.551000000    -0.988000000     2.460000000
H     0.755000000    -2.060000000     2.428000000
H     1.436000000    -0.450000000     2.808000000
H    -0.336000000    -0.831000000     3.076000000
C    -0.010000000    -1.333000000     0.058000000
H     0.081000000    -2.398000000     0.253000000
C    -0.309000000    -0.849000000    -1.189000000
H    -0.390000000    -1.551000000    -2.015000000
C    -0.330000000     0.504000000    -1.434000000
C    -0.697000000     1.190000000    -2.772000000
O    -0.882000000     0.404000000    -3.751000000
O    -0.938000000     2.404000000    -2.904000000
