17
-94.86838
C    -0.409000000     1.298000000     0.604000000
H    -0.532000000     2.264000000     1.087000000
C     0.127000000     0.204000000     1.278000000
H     0.397000000     0.291000000     2.327000000
C     0.420000000    -0.945000000     0.618000000
C     0.975000000    -2.081000000     1.375000000
H     1.757000000    -1.689000000     2.028000000
H     0.238000000    -2.598000000     1.993000000
H     1.561000000    -2.801000000     0.801000000
C     0.127000000    -1.041000000    -0.748000000
H     0.276000000    -2.006000000    -1.226000000
C    -0.355000000    -0.023000000    -1.434000000
H    -0.452000000    -0.128000000    -2.512000000
C    -0.658000000     1.196000000    -0.787000000
C    -0.994000000     2.365000000    -1.586000000
O    -1.160000000     2.272000000    -2.824000000
O    -1.311000000     3.414000000    -0.999000000
