17
-95.50695
C    -1.405000000     0.415000000     0.260000000
H    -2.398000000     0.814000000     0.454000000
C    -0.613000000    -0.191000000     1.208000000
H    -1.000000000    -0.373000000     2.207000000
C     0.700000000    -0.615000000     0.805000000
C     1.673000000    -1.249000000     1.801000000
H     2.649000000    -0.761000000     1.775000000
H     1.281000000    -1.161000000     2.816000000
H     1.884000000    -2.307000000     1.632000000
C     1.172000000    -0.396000000    -0.494000000
H     2.229000000    -0.564000000    -0.684000000
C     0.347000000     0.297000000    -1.424000000
H     0.724000000     0.584000000    -2.402000000
C    -0.965000000     0.624000000    -1.071000000
C    -1.868000000     1.382000000    -2.022000000
O    -1.537000000     1.570000000    -3.189000000
O    -2.878000000     1.932000000    -1.677000000
