17
-94.05264
C     0.133000000     1.264000000     0.724000000
H     0.369000000     2.151000000     1.307000000
C     0.882000000     0.143000000     0.867000000
H     1.715000000     0.185000000     1.564000000
C     0.557000000    -1.073000000     0.266000000
C     1.486000000    -2.235000000     0.490000000
H     0.980000000    -3.124000000     0.108000000
H     2.452000000    -1.960000000     0.062000000
H     1.645000000    -2.326000000     1.566000000
C    -0.484000000    -1.147000000    -0.649000000
H    -0.815000000    -2.006000000    -1.228000000
C    -1.186000000     0.077000000    -0.934000000
H    -2.016000000     0.096000000    -1.636000000
C    -0.843000000     1.296000000    -0.273000000
C    -1.520000000     2.572000000    -0.621000000
O    -2.463000000     2.582000000    -1.385000000
O    -0.884000000     3.505000000    -0.224000000
