17
-96.16839
C     0.632000000     0.924000000     0.956000000
H     1.109000000     1.588000000     1.673000000
C     0.181000000    -0.369000000     1.235000000
H     0.393000000    -0.796000000     2.212000000
C    -0.339000000    -1.168000000     0.247000000
C    -0.762000000    -2.570000000     0.584000000
H    -1.285000000    -3.002000000    -0.271000000
H     0.104000000    -3.219000000     0.725000000
H    -1.350000000    -2.545000000     1.504000000
C    -0.525000000    -0.649000000    -1.022000000
H    -1.144000000    -1.230000000    -1.701000000
C    -0.092000000     0.639000000    -1.288000000
H    -0.337000000     1.119000000    -2.233000000
C     0.540000000     1.453000000    -0.315000000
C     0.943000000     2.853000000    -0.699000000
O     0.865000000     3.326000000    -1.842000000
O     1.059000000     3.647000000     0.227000000
