17
-89.80777
C     0.918000000     1.188000000     0.168000000
H     1.643000000     1.956000000     0.424000000
C     1.235000000    -0.128000000     0.573000000
H     2.176000000    -0.339000000     1.075000000
C     0.176000000    -1.052000000     0.497000000
C     0.502000000    -2.461000000     0.887000000
H     0.312000000    -3.123000000     0.039000000
H     1.560000000    -2.525000000     1.150000000
H    -0.117000000    -2.787000000     1.726000000
C    -1.011000000    -0.823000000    -0.164000000
H    -1.617000000    -1.725000000    -0.178000000
C    -1.329000000     0.436000000    -0.609000000
H    -2.300000000     0.619000000    -1.063000000
C    -0.340000000     1.412000000    -0.518000000
C    -0.531000000     2.744000000    -1.201000000
O    -1.506000000     2.985000000    -1.889000000
O     0.226000000     3.625000000    -0.918000000
