17
-95.32213
C     0.928000000     0.855000000     0.762000000
H     1.634000000     1.574000000     1.170000000
C     0.803000000     0.774000000    -0.640000000
H     1.515000000     1.292000000    -1.277000000
C    -0.109000000    -0.115000000    -1.227000000
C    -0.097000000    -0.246000000    -2.714000000
H    -0.832000000    -0.946000000    -3.117000000
H    -0.349000000     0.750000000    -3.085000000
H     0.920000000    -0.479000000    -3.036000000
C    -0.896000000    -0.982000000    -0.434000000
H    -1.608000000    -1.709000000    -0.817000000
C    -0.745000000    -0.833000000     0.939000000
H    -1.344000000    -1.425000000     1.625000000
C     0.065000000     0.099000000     1.541000000
C     0.088000000     0.307000000     3.052000000
O    -0.869000000     0.010000000     3.758000000
O     0.900000000     1.080000000     3.498000000
