17
-97.08700
C     0.499000000     1.039000000     0.924000000
H     0.786000000     1.702000000     1.736000000
C     0.959000000    -0.245000000     0.892000000
H     1.451000000    -0.646000000     1.775000000
C     0.479000000    -1.143000000    -0.074000000
C     0.810000000    -2.580000000     0.088000000
H     1.822000000    -2.831000000     0.412000000
H     0.096000000    -3.027000000     0.782000000
H     0.746000000    -3.082000000    -0.880000000
C    -0.440000000    -0.687000000    -1.061000000
H    -0.847000000    -1.391000000    -1.782000000
C    -0.946000000     0.600000000    -1.025000000
H    -1.681000000     0.985000000    -1.727000000
C    -0.475000000     1.486000000    -0.005000000
C    -0.928000000     2.913000000    -0.032000000
O    -1.595000000     3.342000000    -0.968000000
O    -0.733000000     3.569000000     0.953000000
