17
-91.90766
C     0.867000000     1.176000000    -0.356000000
H     1.427000000     2.039000000    -0.707000000
C     1.294000000    -0.105000000    -0.352000000
H     2.318000000    -0.364000000    -0.609000000
C     0.449000000    -1.141000000    -0.016000000
C     0.812000000    -2.578000000    -0.159000000
H    -0.028000000    -3.210000000    -0.455000000
H     1.618000000    -2.687000000    -0.888000000
H     1.123000000    -2.881000000     0.843000000
C    -0.854000000    -0.908000000     0.392000000
H    -1.529000000    -1.746000000     0.553000000
C    -1.261000000     0.384000000     0.384000000
H    -2.259000000     0.569000000     0.773000000
C    -0.452000000     1.482000000     0.043000000
C    -1.011000000     2.935000000     0.189000000
O    -2.094000000     3.139000000     0.665000000
O    -0.425000000     3.894000000    -0.301000000
