17
-89.72645
C     0.558000000     1.401000000     0.332000000
H     1.069000000     2.320000000     0.610000000
C     1.084000000     0.155000000     0.679000000
H     1.952000000     0.058000000     1.326000000
C     0.494000000    -1.048000000     0.336000000
C     1.045000000    -2.440000000     0.759000000
H     0.620000000    -3.192000000     0.091000000
H     2.133000000    -2.478000000     0.677000000
H     0.848000000    -2.537000000     1.829000000
C    -0.705000000    -1.018000000    -0.335000000
H    -1.217000000    -1.959000000    -0.520000000
C    -1.139000000     0.138000000    -0.906000000
H    -1.969000000     0.205000000    -1.605000000
C    -0.631000000     1.382000000    -0.419000000
C    -1.178000000     2.665000000    -0.873000000
O    -2.266000000     2.684000000    -1.494000000
O    -0.691000000     3.671000000    -0.490000000
