17
-92.14775
C     0.694000000     0.882000000     0.912000000
H     1.328000000     1.430000000     1.605000000
C     1.128000000     0.565000000    -0.368000000
H     2.143000000     0.823000000    -0.658000000
C     0.342000000    -0.248000000    -1.181000000
C     0.873000000    -0.785000000    -2.492000000
H     0.321000000    -0.242000000    -3.263000000
H     1.943000000    -0.578000000    -2.554000000
H     0.646000000    -1.853000000    -2.478000000
C    -0.896000000    -0.701000000    -0.740000000
H    -1.528000000    -1.298000000    -1.393000000
C    -1.309000000    -0.262000000     0.575000000
H    -2.307000000    -0.519000000     0.921000000
C    -0.503000000     0.485000000     1.412000000
C    -0.852000000     0.703000000     2.813000000
O    -1.971000000     0.471000000     3.230000000
O    -0.059000000     1.125000000     3.661000000
