17
-90.57249
C     1.205000000     0.600000000     0.642000000
H     2.204000000     0.668000000     1.064000000
C     1.092000000     0.052000000    -0.632000000
H     2.063000000    -0.116000000    -1.091000000
C    -0.050000000    -0.285000000    -1.179000000
C    -0.108000000    -1.012000000    -2.554000000
H    -0.858000000    -0.510000000    -3.169000000
H     0.842000000    -0.920000000    -3.083000000
H    -0.425000000    -2.056000000    -2.518000000
C    -1.229000000     0.038000000    -0.481000000
H    -2.172000000    -0.257000000    -0.934000000
C    -1.153000000     0.382000000     0.842000000
H    -2.026000000     0.279000000     1.481000000
C     0.081000000     0.617000000     1.496000000
C     0.134000000     0.855000000     2.999000000
O    -0.759000000     0.333000000     3.673000000
O     1.156000000     1.326000000     3.449000000
