17
-95.47637
C     0.739000000     0.366000000     1.201000000
H     1.348000000     0.425000000     2.099000000
C     1.326000000    -0.036000000     0.034000000
H     2.394000000    -0.240000000     0.061000000
C     0.540000000    -0.249000000    -1.107000000
C     1.144000000    -0.707000000    -2.422000000
H     0.567000000    -0.252000000    -3.230000000
H     2.200000000    -0.506000000    -2.610000000
H     0.999000000    -1.787000000    -2.503000000
C    -0.834000000    -0.214000000    -0.930000000
H    -1.461000000    -0.460000000    -1.783000000
C    -1.459000000     0.202000000     0.234000000
H    -2.541000000     0.245000000     0.326000000
C    -0.687000000     0.487000000     1.390000000
C    -1.239000000     0.786000000     2.720000000
O    -2.472000000     0.854000000     2.836000000
O    -0.565000000     1.083000000     3.676000000
