17
-80.99900
C     1.116000000     0.940000000     0.571000000
H     1.944000000     1.552000000     0.918000000
C     1.055000000     0.376000000    -0.722000000
H     1.884000000     0.676000000    -1.358000000
C    -0.061000000    -0.423000000    -1.141000000
C    -0.028000000    -1.096000000    -2.497000000
H    -0.620000000    -2.011000000    -2.561000000
H    -0.443000000    -0.437000000    -3.261000000
H     1.001000000    -1.333000000    -2.774000000
C    -0.945000000    -0.872000000    -0.203000000
H    -1.716000000    -1.557000000    -0.546000000
C    -0.988000000    -0.224000000     1.060000000
H    -1.825000000    -0.518000000     1.688000000
C     0.010000000     0.725000000     1.411000000
C    -0.077000000     1.300000000     2.752000000
O    -1.131000000     1.185000000     3.294000000
O     0.826000000     1.717000000     3.373000000
