17
-91.45328
C     1.242000000     0.455000000     0.660000000
H     2.183000000     0.828000000     1.057000000
C     1.087000000     0.109000000    -0.665000000
H     1.969000000     0.192000000    -1.293000000
C    -0.086000000    -0.372000000    -1.162000000
C    -0.229000000    -0.663000000    -2.594000000
H    -0.633000000    -1.639000000    -2.872000000
H    -0.798000000     0.032000000    -3.216000000
H     0.802000000    -0.589000000    -2.946000000
C    -1.147000000    -0.508000000    -0.313000000
H    -2.108000000    -0.854000000    -0.684000000
C    -1.090000000    -0.051000000     1.002000000
H    -2.022000000    -0.094000000     1.559000000
C     0.148000000     0.346000000     1.543000000
C     0.241000000     0.809000000     2.904000000
O    -0.794000000     0.758000000     3.591000000
O     1.240000000     1.244000000     3.436000000
