17
-98.72799
C     0.431000000    -0.416000000     1.391000000
H     0.562000000    -0.828000000     2.388000000
C    -0.897000000    -0.425000000     0.859000000
H    -1.705000000    -0.785000000     1.491000000
C    -1.105000000    -0.088000000    -0.488000000
C    -2.479000000    -0.215000000    -1.090000000
H    -2.941000000     0.774000000    -1.123000000
H    -2.457000000    -0.568000000    -2.123000000
H    -3.145000000    -0.873000000    -0.529000000
C    -0.051000000     0.314000000    -1.264000000
H    -0.198000000     0.535000000    -2.318000000
C     1.206000000     0.470000000    -0.704000000
H     1.935000000     0.901000000    -1.386000000
C     1.388000000     0.118000000     0.611000000
C     2.818000000     0.256000000     1.248000000
O     3.835000000     0.160000000     0.592000000
O     2.805000000     0.667000000     2.447000000
