17
-97.88419
C     1.067000000     0.963000000     0.333000000
H     1.878000000     1.628000000     0.616000000
C     1.188000000     0.036000000    -0.717000000
H     2.104000000    -0.011000000    -1.299000000
C     0.038000000    -0.723000000    -1.042000000
C    -0.046000000    -1.668000000    -2.163000000
H     0.691000000    -1.553000000    -2.961000000
H     0.171000000    -2.682000000    -1.821000000
H    -1.076000000    -1.554000000    -2.508000000
C    -0.984000000    -0.674000000    -0.141000000
H    -1.817000000    -1.309000000    -0.433000000
C    -1.088000000     0.179000000     0.934000000
H    -1.919000000     0.069000000     1.626000000
C    -0.032000000     1.004000000     1.232000000
C    -0.057000000     1.865000000     2.462000000
O    -0.955000000     1.677000000     3.291000000
O     0.829000000     2.745000000     2.596000000
