17
-89.18998
C     0.681000000    -1.321000000    -0.206000000
H     1.133000000    -2.307000000    -0.283000000
C    -0.628000000    -1.108000000     0.147000000
H    -1.200000000    -1.990000000     0.426000000
C    -1.222000000     0.139000000     0.237000000
C    -2.698000000     0.307000000     0.584000000
H    -3.288000000     1.026000000     0.012000000
H    -3.248000000    -0.627000000     0.721000000
H    -2.598000000     0.742000000     1.581000000
C    -0.382000000     1.244000000     0.044000000
H    -0.799000000     2.219000000     0.285000000
C     0.935000000     1.064000000    -0.259000000
H     1.462000000     1.948000000    -0.608000000
C     1.549000000    -0.165000000    -0.379000000
C     3.026000000    -0.358000000    -0.646000000
O     3.727000000     0.620000000    -0.913000000
O     3.554000000    -1.428000000    -0.739000000
