17
-93.96769
C     0.981000000    -0.835000000     0.772000000
H     1.560000000    -1.394000000     1.502000000
C    -0.361000000    -0.522000000     1.163000000
H    -0.903000000    -1.019000000     1.964000000
C    -1.188000000     0.252000000     0.329000000
C    -2.635000000     0.518000000     0.628000000
H    -3.149000000     0.684000000    -0.320000000
H    -3.119000000    -0.352000000     1.076000000
H    -2.797000000     1.403000000     1.247000000
C    -0.630000000     0.787000000    -0.839000000
H    -1.091000000     1.476000000    -1.543000000
C     0.713000000     0.500000000    -1.158000000
H     1.048000000     0.906000000    -2.109000000
C     1.550000000    -0.271000000    -0.367000000
C     2.942000000    -0.676000000    -0.704000000
O     3.479000000    -0.086000000    -1.649000000
O     3.595000000    -1.375000000     0.003000000
