17
-93.90883
C     0.600000000     0.296000000     1.343000000
H     0.925000000     0.550000000     2.348000000
C    -0.752000000     0.425000000     1.020000000
H    -1.531000000     0.537000000     1.770000000
C    -1.181000000     0.061000000    -0.271000000
C    -2.645000000    -0.258000000    -0.595000000
H    -3.246000000     0.036000000     0.269000000
H    -3.090000000     0.365000000    -1.374000000
H    -2.882000000    -1.296000000    -0.836000000
C    -0.240000000    -0.164000000    -1.277000000
H    -0.610000000    -0.342000000    -2.283000000
C     1.083000000    -0.105000000    -0.958000000
H     1.850000000    -0.409000000    -1.666000000
C     1.543000000     0.140000000     0.348000000
C     3.020000000     0.027000000     0.658000000
O     3.739000000    -0.009000000    -0.292000000
O     3.412000000     0.153000000     1.796000000
