17
-94.91310
C     1.166000000     0.459000000     0.757000000
H     1.993000000     1.006000000     1.201000000
C     0.091000000     1.242000000     0.330000000
H     0.032000000     2.294000000     0.597000000
C    -0.988000000     0.671000000    -0.363000000
C    -2.206000000     1.478000000    -0.793000000
H    -3.121000000     1.137000000    -0.304000000
H    -2.002000000     2.523000000    -0.549000000
H    -2.273000000     1.457000000    -1.883000000
C    -0.890000000    -0.626000000    -0.684000000
H    -1.682000000    -1.147000000    -1.215000000
C     0.163000000    -1.396000000    -0.209000000
H     0.290000000    -2.439000000    -0.488000000
C     1.215000000    -0.922000000     0.534000000
C     2.461000000    -1.701000000     0.866000000
O     2.542000000    -2.864000000     0.552000000
O     3.217000000    -1.167000000     1.651000000
