17
-96.32509
C    -0.261000000     1.198000000     0.854000000
H    -0.248000000     2.212000000     1.246000000
C    -0.749000000     0.984000000    -0.430000000
H    -1.242000000     1.851000000    -0.864000000
C    -0.550000000    -0.210000000    -1.075000000
C    -1.007000000    -0.430000000    -2.485000000
H    -0.604000000    -1.310000000    -2.991000000
H    -2.080000000    -0.616000000    -2.397000000
H    -0.962000000     0.480000000    -3.087000000
C     0.176000000    -1.228000000    -0.449000000
H     0.363000000    -2.170000000    -0.958000000
C     0.773000000    -0.953000000     0.778000000
H     1.504000000    -1.669000000     1.144000000
C     0.562000000     0.229000000     1.409000000
C     1.288000000     0.483000000     2.731000000
O     1.887000000    -0.416000000     3.317000000
O     1.151000000     1.562000000     3.260000000
