17
-95.33299
C     0.690000000     1.156000000     0.638000000
H     1.045000000     2.106000000     1.030000000
C    -0.036000000     1.199000000    -0.582000000
H    -0.284000000     2.174000000    -0.994000000
C    -0.506000000     0.008000000    -1.155000000
C    -1.547000000     0.079000000    -2.227000000
H    -2.242000000    -0.748000000    -2.065000000
H    -2.233000000     0.928000000    -2.194000000
H    -1.098000000    -0.136000000    -3.199000000
C    -0.405000000    -1.163000000    -0.424000000
H    -0.809000000    -2.120000000    -0.745000000
C     0.397000000    -1.233000000     0.721000000
H     0.618000000    -2.164000000     1.236000000
C     0.933000000    -0.064000000     1.240000000
C     1.611000000    -0.021000000     2.555000000
O     2.016000000    -1.063000000     3.083000000
O     1.842000000     1.055000000     3.087000000
