17
-95.90532
C     1.102000000    -0.025000000    -0.967000000
H     1.929000000     0.149000000    -1.650000000
C    -0.183000000     0.459000000    -1.159000000
H    -0.485000000     0.883000000    -2.113000000
C    -1.188000000     0.309000000    -0.208000000
C    -2.571000000     0.805000000    -0.544000000
H    -3.304000000     0.083000000    -0.178000000
H    -2.750000000     1.717000000     0.030000000
H    -2.593000000     0.873000000    -1.633000000
C    -0.825000000    -0.250000000     0.948000000
H    -1.666000000    -0.375000000     1.625000000
C     0.447000000    -0.727000000     1.213000000
H     0.777000000    -1.208000000     2.131000000
C     1.462000000    -0.541000000     0.293000000
C     2.923000000    -0.689000000     0.661000000
O     3.218000000    -1.026000000     1.798000000
O     3.699000000    -0.437000000    -0.247000000
