17
-96.93713
C     0.619000000     0.554000000    -1.236000000
H     0.982000000     1.058000000    -2.128000000
C    -0.647000000     0.935000000    -0.716000000
H    -1.234000000     1.731000000    -1.168000000
C    -1.145000000     0.360000000     0.431000000
C    -2.493000000     0.658000000     0.942000000
H    -3.053000000     1.220000000     0.191000000
H    -2.976000000    -0.312000000     1.081000000
H    -2.417000000     1.269000000     1.844000000
C    -0.324000000    -0.580000000     1.086000000
H    -0.784000000    -1.072000000     1.939000000
C     0.992000000    -0.897000000     0.683000000
H     1.552000000    -1.592000000     1.304000000
C     1.435000000    -0.374000000    -0.553000000
C     2.825000000    -0.828000000    -1.078000000
O     3.622000000    -1.435000000    -0.373000000
O     3.049000000    -0.695000000    -2.248000000
