17
-96.44347
C     1.148000000     0.455000000    -0.900000000
H     1.896000000     0.824000000    -1.598000000
C    -0.097000000     1.017000000    -0.779000000
H    -0.347000000     1.869000000    -1.405000000
C    -1.074000000     0.508000000     0.035000000
C    -2.436000000     1.290000000     0.128000000
H    -2.353000000     2.342000000     0.408000000
H    -2.921000000     1.091000000    -0.830000000
H    -3.087000000     0.920000000     0.923000000
C    -0.851000000    -0.603000000     0.847000000
H    -1.635000000    -0.966000000     1.507000000
C     0.425000000    -1.250000000     0.780000000
H     0.616000000    -2.136000000     1.380000000
C     1.401000000    -0.747000000    -0.078000000
C     2.754000000    -1.409000000    -0.141000000
O     3.124000000    -1.984000000     0.853000000
O     3.445000000    -1.223000000    -1.124000000
