17
-84.31608
C     1.012000000     0.185000000    -0.964000000
H     1.673000000     0.408000000    -1.797000000
C    -0.215000000     0.808000000    -1.042000000
H    -0.565000000     1.416000000    -1.872000000
C    -1.094000000     0.551000000     0.009000000
C    -2.559000000     1.092000000     0.002000000
H    -3.112000000     0.616000000    -0.811000000
H    -3.082000000     0.773000000     0.906000000
H    -2.453000000     2.179000000    -0.009000000
C    -0.672000000    -0.184000000     1.062000000
H    -1.334000000    -0.457000000     1.880000000
C     0.559000000    -0.852000000     1.002000000
H     0.852000000    -1.463000000     1.852000000
C     1.485000000    -0.555000000     0.061000000
C     2.821000000    -1.297000000    -0.019000000
O     3.174000000    -2.203000000     0.689000000
O     3.515000000    -1.014000000    -0.952000000
