17
-97.43945
C     0.454000000    -0.945000000    -0.989000000
H     0.631000000    -1.860000000    -1.549000000
C    -0.842000000    -0.492000000    -0.847000000
H    -1.738000000    -0.912000000    -1.297000000
C    -1.119000000     0.507000000     0.015000000
C    -2.570000000     0.920000000     0.176000000
H    -3.055000000     1.177000000    -0.768000000
H    -3.031000000     0.035000000     0.619000000
H    -2.597000000     1.757000000     0.876000000
C    -0.111000000     1.105000000     0.766000000
H    -0.303000000     1.929000000     1.448000000
C     1.218000000     0.614000000     0.715000000
H     1.980000000     0.997000000     1.389000000
C     1.510000000    -0.488000000    -0.142000000
C     2.854000000    -1.240000000    -0.117000000
O     3.670000000    -1.041000000     0.760000000
O     3.054000000    -2.067000000    -1.055000000
