17
-96.42424
C     1.049000000    -0.629000000    -0.867000000
H     1.685000000    -1.222000000    -1.520000000
C    -0.196000000    -0.072000000    -1.297000000
H    -0.477000000    -0.254000000    -2.331000000
C    -1.053000000     0.495000000    -0.366000000
C    -2.308000000     1.127000000    -0.865000000
H    -3.192000000     0.616000000    -0.477000000
H    -2.371000000     2.198000000    -0.659000000
H    -2.367000000     0.978000000    -1.945000000
C    -0.666000000     0.608000000     0.980000000
H    -1.325000000     1.194000000     1.616000000
C     0.494000000     0.024000000     1.439000000
H     0.636000000     0.023000000     2.517000000
C     1.388000000    -0.612000000     0.511000000
C     2.621000000    -1.247000000     0.958000000
O     2.561000000    -1.701000000     2.109000000
O     3.514000000    -1.528000000     0.196000000
