17
-96.52492
C     0.116000000    -0.508000000    -1.374000000
H     0.107000000    -0.807000000    -2.419000000
C    -0.934000000     0.222000000    -0.855000000
H    -1.725000000     0.574000000    -1.513000000
C    -0.972000000     0.675000000     0.448000000
C    -2.239000000     1.294000000     1.017000000
H    -2.367000000     2.206000000     0.431000000
H    -3.079000000     0.624000000     0.821000000
H    -2.195000000     1.489000000     2.090000000
C     0.131000000     0.268000000     1.261000000
H     0.207000000     0.604000000     2.292000000
C     1.218000000    -0.446000000     0.769000000
H     2.067000000    -0.666000000     1.411000000
C     1.202000000    -0.825000000    -0.573000000
C     2.505000000    -1.431000000    -1.112000000
O     3.355000000    -1.833000000    -0.382000000
O     2.608000000    -1.439000000    -2.312000000
