17
-94.85989
C    -0.690000000     0.483000000    -1.192000000
H    -1.306000000     0.881000000    -1.994000000
C    -1.135000000     0.584000000     0.141000000
H    -2.039000000     1.106000000     0.442000000
C    -0.430000000     0.015000000     1.196000000
C    -0.833000000     0.187000000     2.591000000
H    -1.497000000    -0.602000000     2.950000000
H    -0.033000000     0.300000000     3.325000000
H    -1.431000000     1.099000000     2.639000000
C     0.766000000    -0.587000000     0.869000000
H     1.270000000    -0.960000000     1.757000000
C     1.253000000    -0.594000000    -0.473000000
H     2.161000000    -1.167000000    -0.642000000
C     0.521000000    -0.091000000    -1.574000000
C     0.972000000    -0.210000000    -2.992000000
O     2.036000000    -0.801000000    -3.148000000
O     0.411000000     0.358000000    -3.900000000
