17
-96.29956
C    -0.743000000     1.164000000    -0.625000000
H    -1.370000000     1.978000000    -0.979000000
C    -1.070000000     0.515000000     0.573000000
H    -1.836000000     1.018000000     1.157000000
C    -0.336000000    -0.550000000     1.051000000
C    -0.631000000    -1.276000000     2.362000000
H    -1.694000000    -1.290000000     2.613000000
H    -0.200000000    -2.260000000     2.555000000
H    -0.257000000    -0.564000000     3.101000000
C     0.729000000    -1.006000000     0.310000000
H     1.401000000    -1.803000000     0.616000000
C     1.162000000    -0.305000000    -0.843000000
H     2.077000000    -0.583000000    -1.360000000
C     0.377000000     0.717000000    -1.328000000
C     0.679000000     1.246000000    -2.722000000
O     1.726000000     0.904000000    -3.239000000
O    -0.014000000     2.102000000    -3.235000000
