17
-88.44666
C    -0.815000000    -0.676000000    -1.070000000
H    -1.529000000    -1.087000000    -1.778000000
C    -0.767000000    -1.153000000     0.285000000
H    -1.365000000    -2.031000000     0.517000000
C     0.052000000    -0.492000000     1.123000000
C     0.328000000    -0.954000000     2.574000000
H    -0.293000000    -1.790000000     2.902000000
H     1.385000000    -1.206000000     2.678000000
H     0.182000000    -0.048000000     3.166000000
C     0.681000000     0.617000000     0.742000000
H     1.325000000     1.096000000     1.475000000
C     0.628000000     1.165000000    -0.560000000
H     1.145000000     2.106000000    -0.732000000
C    -0.180000000     0.501000000    -1.498000000
C    -0.179000000     1.107000000    -2.929000000
O     0.172000000     2.277000000    -3.064000000
O    -0.764000000     0.566000000    -3.830000000
