17
-90.26484
C     0.066000000    -0.039000000    -1.421000000
H     0.089000000    -0.186000000    -2.498000000
C    -0.268000000    -1.071000000    -0.622000000
H    -0.579000000    -1.986000000    -1.120000000
C    -0.389000000    -0.911000000     0.715000000
C    -1.006000000    -2.046000000     1.485000000
H    -1.735000000    -1.473000000     2.062000000
H    -1.667000000    -2.753000000     0.978000000
H    -0.272000000    -2.568000000     2.103000000
C     0.123000000     0.207000000     1.339000000
H     0.098000000     0.317000000     2.420000000
C     0.533000000     1.267000000     0.523000000
H     0.958000000     2.192000000     0.905000000
C     0.571000000     1.141000000    -0.877000000
C     1.073000000     2.301000000    -1.777000000
O     1.484000000     3.325000000    -1.248000000
O     0.923000000     2.279000000    -2.967000000
