17
-93.36362
C    -0.205000000     0.012000000    -1.503000000
H    -0.431000000     0.020000000    -2.566000000
C    -0.747000000    -0.974000000    -0.663000000
H    -1.398000000    -1.780000000    -0.992000000
C    -0.466000000    -0.868000000     0.698000000
C    -1.085000000    -1.862000000     1.720000000
H    -2.046000000    -2.345000000     1.527000000
H    -0.440000000    -2.727000000     1.886000000
H    -1.144000000    -1.309000000     2.660000000
C     0.377000000     0.120000000     1.199000000
H     0.654000000     0.157000000     2.249000000
C     0.909000000     1.072000000     0.327000000
H     1.551000000     1.824000000     0.778000000
C     0.599000000     1.094000000    -1.000000000
C     1.163000000     2.179000000    -1.876000000
O     1.958000000     3.009000000    -1.447000000
O     0.755000000     2.373000000    -2.989000000
