17
-92.32619
C     0.236000000    -0.444000000    -1.372000000
H     0.571000000    -0.835000000    -2.329000000
C     0.443000000    -1.214000000    -0.219000000
H     0.778000000    -2.244000000    -0.312000000
C     0.133000000    -0.664000000     1.035000000
C     0.431000000    -1.574000000     2.256000000
H     0.784000000    -2.496000000     1.788000000
H     1.205000000    -1.108000000     2.869000000
H    -0.475000000    -1.715000000     2.849000000
C    -0.360000000     0.624000000     1.179000000
H    -0.750000000     0.918000000     2.150000000
C    -0.481000000     1.432000000    -0.042000000
H    -0.944000000     2.414000000     0.009000000
C    -0.179000000     0.924000000    -1.349000000
C    -0.319000000     1.763000000    -2.538000000
O    -0.394000000     2.993000000    -2.395000000
O    -0.671000000     1.230000000    -3.583000000
