17
-89.69120
C     0.155000000    -0.356000000    -1.438000000
H     0.280000000    -0.718000000    -2.456000000
C     0.315000000    -1.232000000    -0.311000000
H     0.711000000    -2.221000000    -0.528000000
C     0.119000000    -0.780000000     0.961000000
C     0.155000000    -1.734000000     2.125000000
H     1.146000000    -2.188000000     2.181000000
H    -0.133000000    -1.288000000     3.080000000
H    -0.578000000    -2.487000000     1.829000000
C    -0.232000000     0.525000000     1.166000000
H    -0.363000000     0.971000000     2.148000000
C    -0.352000000     1.381000000     0.082000000
H    -0.584000000     2.414000000     0.328000000
C    -0.142000000     0.982000000    -1.231000000
C    -0.199000000     1.977000000    -2.358000000
O    -0.379000000     3.095000000    -2.085000000
O     0.085000000     1.660000000    -3.485000000
