17
-95.47257
C    -0.558000000    -0.587000000    -1.233000000
H    -0.899000000    -1.155000000    -2.095000000
C     0.098000000    -1.293000000    -0.256000000
H     0.327000000    -2.326000000    -0.502000000
C     0.534000000    -0.583000000     0.862000000
C     1.495000000    -1.315000000     1.854000000
H     2.455000000    -1.678000000     1.484000000
H     1.738000000    -0.742000000     2.751000000
H     0.961000000    -2.157000000     2.299000000
C     0.130000000     0.657000000     1.107000000
H     0.263000000     1.062000000     2.107000000
C    -0.573000000     1.412000000     0.133000000
H    -0.864000000     2.440000000     0.333000000
C    -0.811000000     0.793000000    -1.095000000
C    -1.357000000     1.610000000    -2.247000000
O    -1.038000000     2.830000000    -2.286000000
O    -1.901000000     1.040000000    -3.210000000
