17
-90.29017
C    -0.166000000    -0.316000000    -1.451000000
H    -0.318000000    -0.688000000    -2.462000000
C     0.380000000    -1.136000000    -0.493000000
H     0.722000000    -2.136000000    -0.746000000
C     0.615000000    -0.673000000     0.802000000
C     1.326000000    -1.521000000     1.804000000
H     1.082000000    -1.236000000     2.830000000
H     1.078000000    -2.585000000     1.814000000
H     2.385000000    -1.565000000     1.541000000
C     0.177000000     0.601000000     1.135000000
H     0.362000000     0.919000000     2.157000000
C    -0.650000000     1.320000000     0.310000000
H    -1.120000000     2.269000000     0.555000000
C    -0.770000000     0.891000000    -1.003000000
C    -1.476000000     1.752000000    -2.010000000
O    -1.988000000     2.789000000    -1.688000000
O    -1.642000000     1.311000000    -3.093000000
