17
-90.70329
C    -0.099000000     0.412000000    -1.375000000
H     0.071000000     0.616000000    -2.429000000
C     1.050000000    -0.200000000    -0.817000000
H     1.780000000    -0.607000000    -1.511000000
C     0.990000000    -0.539000000     0.521000000
C     2.079000000    -1.333000000     1.209000000
H     2.464000000    -0.764000000     2.058000000
H     1.553000000    -2.224000000     1.556000000
H     2.919000000    -1.730000000     0.634000000
C    -0.150000000    -0.349000000     1.222000000
H    -0.279000000    -0.769000000     2.216000000
C    -1.146000000     0.463000000     0.730000000
H    -1.939000000     0.910000000     1.325000000
C    -1.184000000     0.853000000    -0.658000000
C    -2.383000000     1.593000000    -1.365000000
O    -3.201000000     2.235000000    -0.727000000
O    -2.526000000     1.429000000    -2.588000000
