17
-94.41013
C    -0.633000000     0.644000000    -1.175000000
H    -0.952000000     1.110000000    -2.104000000
C    -0.009000000    -0.610000000    -1.187000000
H     0.037000000    -1.099000000    -2.156000000
C     0.432000000    -1.189000000     0.004000000
C     1.312000000    -2.401000000     0.061000000
H     2.296000000    -2.185000000    -0.359000000
H     1.402000000    -2.762000000     1.088000000
H     0.990000000    -3.195000000    -0.616000000
C     0.275000000    -0.461000000     1.152000000
H     0.558000000    -0.934000000     2.089000000
C    -0.412000000     0.798000000     1.184000000
H    -0.695000000     1.260000000     2.127000000
C    -0.771000000     1.362000000     0.025000000
C    -1.160000000     2.835000000    -0.016000000
O    -1.553000000     3.410000000     0.961000000
O    -1.122000000     3.411000000    -1.085000000
