17
-96.85048
C    -0.744000000     0.398000000    -1.225000000
H    -1.105000000     0.625000000    -2.225000000
C    -0.010000000    -0.760000000    -1.090000000
H    -0.213000000    -1.588000000    -1.765000000
C     0.687000000    -1.013000000     0.118000000
C     1.304000000    -2.324000000     0.262000000
H     0.916000000    -3.126000000    -0.370000000
H     2.372000000    -2.274000000     0.040000000
H     1.129000000    -2.650000000     1.290000000
C     0.652000000    -0.098000000     1.161000000
H     1.221000000    -0.272000000     2.071000000
C    -0.171000000     1.062000000     1.062000000
H    -0.344000000     1.649000000     1.961000000
C    -0.787000000     1.352000000    -0.151000000
C    -1.502000000     2.646000000    -0.319000000
O    -1.642000000     3.408000000     0.638000000
O    -1.765000000     2.964000000    -1.464000000
