17
-89.54364
C    -0.705000000     0.333000000    -1.302000000
H    -1.232000000     0.477000000    -2.242000000
C    -0.112000000    -0.885000000    -0.939000000
H    -0.174000000    -1.741000000    -1.607000000
C     0.471000000    -1.107000000     0.340000000
C     1.221000000    -2.397000000     0.757000000
H     2.166000000    -2.126000000     1.232000000
H     0.675000000    -2.943000000     1.530000000
H     1.297000000    -3.099000000    -0.076000000
C     0.560000000    -0.014000000     1.173000000
H     1.104000000    -0.095000000     2.110000000
C     0.003000000     1.252000000     0.754000000
H     0.035000000     2.025000000     1.518000000
C    -0.699000000     1.421000000    -0.378000000
C    -1.456000000     2.599000000    -0.791000000
O    -1.207000000     3.626000000    -0.166000000
O    -1.944000000     2.682000000    -1.908000000
