17
-90.48135
C    -0.483000000     0.768000000    -1.231000000
H    -0.837000000     1.215000000    -2.157000000
C     0.037000000    -0.563000000    -1.220000000
H     0.063000000    -1.171000000    -2.120000000
C     0.510000000    -1.105000000    -0.010000000
C     1.114000000    -2.504000000     0.098000000
H     2.176000000    -2.535000000    -0.152000000
H     0.900000000    -2.944000000     1.074000000
H     0.759000000    -3.324000000    -0.529000000
C     0.325000000    -0.403000000     1.133000000
H     0.523000000    -1.001000000     2.019000000
C    -0.167000000     0.872000000     1.180000000
H    -0.496000000     1.285000000     2.131000000
C    -0.612000000     1.495000000    -0.030000000
C    -1.125000000     2.914000000    -0.061000000
O    -1.317000000     3.560000000     0.975000000
O    -1.369000000     3.445000000    -1.105000000
