17
-87.71042
C    -0.165000000     0.399000000    -1.408000000
H     0.029000000     0.729000000    -2.425000000
C     0.233000000    -0.861000000    -0.935000000
H     0.529000000    -1.686000000    -1.577000000
C     0.370000000    -1.084000000     0.431000000
C     0.755000000    -2.446000000     0.834000000
H    -0.057000000    -3.154000000     1.010000000
H     1.143000000    -3.041000000     0.004000000
H     1.499000000    -2.463000000     1.633000000
C    -0.119000000    -0.167000000     1.312000000
H    -0.304000000    -0.501000000     2.329000000
C    -0.455000000     1.150000000     0.885000000
H    -0.698000000     1.925000000     1.608000000
C    -0.402000000     1.468000000    -0.488000000
C    -0.631000000     2.901000000    -0.917000000
O    -0.797000000     3.830000000    -0.183000000
O    -0.930000000     3.007000000    -2.115000000
