17
-94.83081
C    -1.172000000     0.636000000    -0.675000000
H    -1.982000000     1.078000000    -1.250000000
C    -0.864000000    -0.719000000    -0.745000000
H    -1.473000000    -1.463000000    -1.252000000
C     0.326000000    -1.208000000    -0.159000000
C     0.532000000    -2.709000000    -0.150000000
H    -0.374000000    -3.094000000     0.322000000
H     0.765000000    -3.046000000    -1.162000000
H     1.387000000    -2.981000000     0.472000000
C     1.164000000    -0.299000000     0.516000000
H     2.008000000    -0.742000000     1.038000000
C     0.782000000     1.022000000     0.760000000
H     1.391000000     1.590000000     1.459000000
C    -0.329000000     1.534000000     0.095000000
C    -0.626000000     3.057000000     0.215000000
O     0.042000000     3.791000000     0.903000000
O    -1.575000000     3.551000000    -0.380000000
