17
-98.09179
C    -1.097000000     0.991000000    -0.368000000
H    -2.026000000     1.544000000    -0.477000000
C    -1.258000000    -0.398000000    -0.216000000
H    -2.177000000    -0.968000000    -0.333000000
C    -0.111000000    -1.200000000     0.109000000
C    -0.256000000    -2.703000000     0.180000000
H    -1.133000000    -2.938000000     0.787000000
H    -0.397000000    -3.079000000    -0.836000000
H     0.567000000    -3.266000000     0.625000000
C     1.077000000    -0.582000000     0.425000000
H     1.853000000    -1.247000000     0.796000000
C     1.218000000     0.817000000     0.384000000
H     2.208000000     1.210000000     0.602000000
C     0.180000000     1.593000000    -0.140000000
C     0.375000000     3.020000000    -0.443000000
O     1.351000000     3.580000000     0.089000000
O    -0.382000000     3.634000000    -1.180000000
