17
-88.10202
C    -0.930000000    -0.028000000     1.187000000
H    -1.539000000    -0.070000000     2.085000000
C     0.473000000    -0.138000000     1.213000000
H     1.032000000    -0.155000000     2.146000000
C     1.264000000    -0.101000000     0.007000000
C     2.731000000    -0.285000000     0.072000000
H     3.306000000     0.330000000    -0.624000000
H     2.965000000    -0.179000000     1.133000000
H     2.977000000    -1.284000000    -0.294000000
C     0.574000000     0.055000000    -1.187000000
H     1.173000000     0.156000000    -2.088000000
C    -0.828000000     0.099000000    -1.192000000
H    -1.291000000     0.206000000    -2.170000000
C    -1.547000000     0.169000000    -0.035000000
C    -3.029000000     0.352000000    -0.074000000
O    -3.612000000     0.822000000    -1.029000000
O    -3.711000000     0.057000000     0.844000000
