17
-92.22405
C    -0.325000000     0.665000000     1.305000000
H    -0.472000000     0.891000000     2.358000000
C     0.837000000    -0.076000000     0.999000000
H     1.617000000    -0.069000000     1.756000000
C     1.041000000    -0.657000000    -0.283000000
C     2.205000000    -1.489000000    -0.512000000
H     2.670000000    -1.186000000    -1.453000000
H     2.916000000    -1.316000000     0.299000000
H     1.850000000    -2.521000000    -0.515000000
C     0.066000000    -0.560000000    -1.242000000
H     0.315000000    -0.812000000    -2.270000000
C    -1.015000000     0.283000000    -0.948000000
H    -1.701000000     0.390000000    -1.785000000
C    -1.289000000     0.876000000     0.289000000
C    -2.572000000     1.681000000     0.603000000
O    -3.331000000     1.900000000    -0.320000000
O    -2.811000000     2.005000000     1.724000000
