17
-90.71353
C     0.184000000     1.410000000     0.114000000
H     0.585000000     2.420000000     0.125000000
C     1.142000000     0.462000000    -0.050000000
H     2.193000000     0.737000000    -0.082000000
C     0.787000000    -0.909000000    -0.029000000
C     1.910000000    -1.942000000    -0.078000000
H     1.945000000    -2.503000000    -1.014000000
H     2.913000000    -1.513000000    -0.036000000
H     1.759000000    -2.700000000     0.693000000
C    -0.509000000    -1.220000000    -0.048000000
H    -0.722000000    -2.280000000    -0.160000000
C    -1.510000000    -0.240000000     0.013000000
H    -2.543000000    -0.579000000     0.024000000
C    -1.147000000     1.152000000     0.062000000
C    -2.068000000     2.247000000     0.153000000
O    -3.261000000     2.078000000    -0.114000000
O    -1.663000000     3.387000000     0.434000000
