17
-90.62518
C     0.307000000     1.293000000     0.443000000
H     0.734000000     2.251000000     0.730000000
C     1.159000000     0.187000000     0.393000000
H     2.207000000     0.325000000     0.645000000
C     0.756000000    -1.000000000    -0.116000000
C     1.787000000    -2.143000000    -0.320000000
H     2.324000000    -1.858000000    -1.227000000
H     2.414000000    -2.083000000     0.572000000
H     1.340000000    -3.132000000    -0.431000000
C    -0.601000000    -1.141000000    -0.308000000
H    -0.993000000    -2.097000000    -0.646000000
C    -1.537000000    -0.050000000    -0.211000000
H    -2.556000000    -0.155000000    -0.575000000
C    -1.054000000     1.204000000     0.231000000
C    -1.868000000     2.458000000     0.313000000
O    -3.002000000     2.367000000    -0.063000000
O    -1.419000000     3.574000000     0.574000000
