17
-96.37022
C     0.118000000     1.423000000    -0.389000000
H     0.203000000     2.504000000    -0.461000000
C     0.904000000     0.819000000     0.615000000
H     1.685000000     1.387000000     1.116000000
C     0.657000000    -0.528000000     0.909000000
C     1.661000000    -1.296000000     1.703000000
H     1.195000000    -2.196000000     2.111000000
H     2.608000000    -1.489000000     1.195000000
H     1.957000000    -0.800000000     2.630000000
C    -0.343000000    -1.231000000     0.253000000
H    -0.566000000    -2.257000000     0.537000000
C    -1.126000000    -0.644000000    -0.749000000
H    -1.924000000    -1.173000000    -1.263000000
C    -0.877000000     0.746000000    -1.133000000
C    -1.764000000     1.385000000    -2.127000000
O    -2.670000000     0.740000000    -2.635000000
O    -1.718000000     2.609000000    -2.307000000
