17
-99.89867
C    -1.346000000     0.658000000    -0.117000000
H    -2.299000000     1.178000000    -0.066000000
C    -0.646000000     0.434000000     1.085000000
H    -1.181000000     0.697000000     1.994000000
C     0.538000000    -0.329000000     1.070000000
C     1.209000000    -0.761000000     2.345000000
H     1.650000000     0.133000000     2.789000000
H     0.527000000    -1.212000000     3.070000000
H     1.957000000    -1.543000000     2.200000000
C     1.118000000    -0.703000000    -0.154000000
H     2.070000000    -1.228000000    -0.137000000
C     0.540000000    -0.248000000    -1.365000000
H     1.155000000    -0.304000000    -2.260000000
C    -0.764000000     0.361000000    -1.368000000
C    -1.371000000     0.820000000    -2.682000000
O    -0.946000000     0.327000000    -3.707000000
O    -2.215000000     1.723000000    -2.705000000
