17
-95.72362
C     0.553000000     0.991000000     0.942000000
H     0.883000000     1.544000000     1.818000000
C     0.713000000    -0.417000000     1.043000000
H     1.261000000    -0.863000000     1.869000000
C     0.106000000    -1.249000000     0.106000000
C     0.455000000    -2.672000000     0.049000000
H     1.494000000    -2.819000000    -0.254000000
H     0.161000000    -3.286000000     0.903000000
H    -0.167000000    -3.086000000    -0.747000000
C    -0.584000000    -0.650000000    -0.912000000
H    -1.081000000    -1.264000000    -1.658000000
C    -0.819000000     0.727000000    -0.969000000
H    -1.468000000     1.098000000    -1.758000000
C    -0.216000000     1.583000000    -0.054000000
C    -0.375000000     3.055000000    -0.127000000
O    -1.178000000     3.553000000    -0.894000000
O     0.266000000     3.752000000     0.637000000
