17
-98.02076
C    -0.472000000     1.332000000     0.376000000
H    -0.788000000     2.314000000     0.717000000
C     0.285000000     1.045000000    -0.733000000
H     0.529000000     1.885000000    -1.379000000
C     0.618000000    -0.266000000    -1.062000000
C     1.581000000    -0.544000000    -2.168000000
H     2.307000000    -1.292000000    -1.842000000
H     1.153000000    -0.760000000    -3.149000000
H     2.258000000     0.302000000    -2.301000000
C     0.146000000    -1.310000000    -0.287000000
H     0.454000000    -2.346000000    -0.405000000
C    -0.594000000    -1.005000000     0.872000000
H    -0.916000000    -1.847000000     1.479000000
C    -0.847000000     0.327000000     1.252000000
C    -1.631000000     0.611000000     2.561000000
O    -2.256000000    -0.256000000     3.220000000
O    -1.834000000     1.807000000     2.849000000
