17
-93.80262
C    -0.391000000     1.296000000     0.550000000
H    -0.592000000     2.346000000     0.748000000
C     0.660000000     1.091000000    -0.319000000
H     1.257000000     1.896000000    -0.739000000
C     0.991000000    -0.216000000    -0.741000000
C     2.038000000    -0.360000000    -1.789000000
H     1.718000000     0.320000000    -2.582000000
H     3.025000000    -0.128000000    -1.384000000
H     2.078000000    -1.392000000    -2.142000000
C     0.228000000    -1.304000000    -0.157000000
H     0.462000000    -2.333000000    -0.418000000
C    -0.765000000    -1.076000000     0.791000000
H    -1.269000000    -1.968000000     1.153000000
C    -1.168000000     0.237000000     1.060000000
C    -2.404000000     0.470000000     1.819000000
O    -2.943000000    -0.459000000     2.333000000
O    -2.931000000     1.579000000     1.816000000
