17
-81.03586
C     0.078000000     1.486000000     0.270000000
H    -0.116000000     2.552000000     0.180000000
C     0.421000000     0.825000000    -0.924000000
H     0.505000000     1.379000000    -1.856000000
C     0.425000000    -0.550000000    -0.984000000
C     0.866000000    -1.315000000    -2.306000000
H     0.817000000    -0.701000000    -3.207000000
H     1.925000000    -1.490000000    -2.103000000
H     0.300000000    -2.230000000    -2.489000000
C     0.157000000    -1.328000000     0.154000000
H     0.190000000    -2.414000000     0.164000000
C    -0.316000000    -0.665000000     1.273000000
H    -0.578000000    -1.188000000     2.189000000
C    -0.583000000     0.725000000     1.283000000
C    -1.166000000     1.449000000     2.469000000
O    -1.338000000     0.839000000     3.448000000
O    -1.579000000     2.618000000     2.440000000
