17
-93.98561
C    -0.903000000     1.202000000     0.052000000
H    -1.489000000     2.112000000    -0.042000000
C     0.113000000     1.028000000    -0.900000000
H     0.458000000     1.843000000    -1.530000000
C     0.920000000    -0.106000000    -0.764000000
C     2.143000000    -0.304000000    -1.698000000
H     1.968000000    -0.332000000    -2.775000000
H     2.762000000     0.571000000    -1.490000000
H     2.697000000    -1.211000000    -1.444000000
C     0.608000000    -1.152000000     0.167000000
H     1.163000000    -2.085000000     0.206000000
C    -0.516000000    -1.038000000     0.982000000
H    -0.778000000    -1.872000000     1.628000000
C    -1.210000000     0.159000000     1.037000000
C    -2.334000000     0.354000000     1.945000000
O    -2.569000000    -0.526000000     2.744000000
O    -3.031000000     1.364000000     1.882000000
