17
-101.46171
C    -0.888000000     1.169000000     0.142000000
H    -1.404000000     2.120000000     0.239000000
C     0.203000000     1.049000000    -0.704000000
H     0.458000000     1.883000000    -1.353000000
C     0.938000000    -0.147000000    -0.815000000
C     2.088000000    -0.189000000    -1.834000000
H     2.771000000    -0.982000000    -1.524000000
H     1.715000000    -0.373000000    -2.844000000
H     2.554000000     0.799000000    -1.826000000
C     0.626000000    -1.217000000     0.019000000
H     1.235000000    -2.115000000    -0.039000000
C    -0.451000000    -1.041000000     0.929000000
H    -0.764000000    -1.826000000     1.613000000
C    -1.165000000     0.130000000     1.032000000
C    -2.322000000     0.232000000     2.033000000
O    -2.580000000    -0.750000000     2.736000000
O    -3.009000000     1.253000000     2.198000000
