17
-97.73325
C     0.177000000     0.919000000    -1.116000000
H     0.267000000     1.556000000    -1.992000000
C     0.301000000    -0.483000000    -1.204000000
H     0.671000000    -0.824000000    -2.167000000
C     0.137000000    -1.206000000    -0.017000000
C     0.335000000    -2.705000000    -0.119000000
H     1.346000000    -2.865000000    -0.500000000
H     0.311000000    -3.192000000     0.858000000
H    -0.334000000    -3.201000000    -0.825000000
C    -0.115000000    -0.600000000     1.210000000
H    -0.094000000    -1.214000000     2.107000000
C    -0.314000000     0.803000000     1.270000000
H    -0.532000000     1.268000000     2.227000000
C    -0.200000000     1.554000000     0.071000000
C    -0.591000000     2.995000000     0.059000000
O    -0.617000000     3.606000000     1.115000000
O    -0.751000000     3.593000000    -0.978000000
