17
-96.43431
C    -0.457000000     1.402000000    -0.072000000
H    -0.772000000     2.415000000    -0.307000000
C    -0.503000000     0.464000000    -1.102000000
H    -0.890000000     0.758000000    -2.074000000
C     0.007000000    -0.807000000    -0.945000000
C     0.113000000    -1.683000000    -2.137000000
H     0.898000000    -2.411000000    -1.921000000
H    -0.830000000    -2.196000000    -2.338000000
H     0.321000000    -1.046000000    -3.000000000
C     0.344000000    -1.237000000     0.352000000
H     0.679000000    -2.257000000     0.525000000
C     0.266000000    -0.338000000     1.387000000
H     0.502000000    -0.722000000     2.376000000
C    -0.054000000     0.986000000     1.201000000
C     0.132000000     2.014000000     2.321000000
O     0.882000000     1.684000000     3.210000000
O    -0.646000000     2.973000000     2.518000000
