17
-96.19293
C     0.589000000     0.680000000    -1.245000000
H     0.977000000     0.995000000    -2.210000000
C     0.526000000    -0.705000000    -0.906000000
H     0.849000000    -1.422000000    -1.657000000
C     0.040000000    -1.209000000     0.272000000
C    -0.110000000    -2.736000000     0.410000000
H     0.865000000    -3.218000000     0.309000000
H    -0.430000000    -2.980000000     1.425000000
H    -0.866000000    -3.072000000    -0.303000000
C    -0.450000000    -0.320000000     1.222000000
H    -1.058000000    -0.657000000     2.058000000
C    -0.312000000     1.044000000     0.948000000
H    -0.682000000     1.722000000     1.713000000
C     0.148000000     1.561000000    -0.253000000
C     0.008000000     3.028000000    -0.516000000
O    -0.076000000     3.837000000     0.391000000
O    -0.012000000     3.445000000    -1.658000000
