17
-93.78969
C    -1.159000000    -0.156000000    -0.875000000
H    -1.892000000    -0.278000000    -1.669000000
C    -0.096000000    -1.075000000    -0.781000000
H    -0.069000000    -1.811000000    -1.580000000
C     0.942000000    -0.866000000     0.099000000
C     2.176000000    -1.713000000     0.103000000
H     2.013000000    -2.791000000     0.149000000
H     2.552000000    -1.672000000    -0.921000000
H     2.864000000    -1.397000000     0.890000000
C     0.787000000     0.227000000     1.013000000
H     1.596000000     0.368000000     1.725000000
C    -0.277000000     1.152000000     0.944000000
H    -0.281000000     2.036000000     1.578000000
C    -1.232000000     0.991000000    -0.062000000
C    -2.353000000     2.007000000    -0.190000000
O    -2.657000000     2.717000000     0.794000000
O    -2.919000000     2.261000000    -1.210000000
