17
-98.26118
C    -0.281000000     1.204000000    -0.698000000
H    -0.483000000     2.070000000    -1.323000000
C     0.677000000     0.270000000    -1.128000000
H     1.318000000     0.502000000    -1.975000000
C     0.872000000    -0.854000000    -0.320000000
C     1.816000000    -1.960000000    -0.776000000
H     1.645000000    -2.812000000    -0.115000000
H     1.721000000    -2.312000000    -1.805000000
H     2.854000000    -1.671000000    -0.601000000
C     0.080000000    -0.945000000     0.847000000
H     0.174000000    -1.858000000     1.429000000
C    -0.857000000     0.014000000     1.266000000
H    -1.373000000    -0.036000000     2.221000000
C    -1.099000000     1.086000000     0.415000000
C    -2.113000000     2.131000000     0.757000000
O    -3.134000000     1.888000000     1.356000000
O    -1.824000000     3.285000000     0.451000000
