17
-95.51573
C    -0.037000000     1.278000000    -0.800000000
H    -0.219000000     2.005000000    -1.587000000
C     0.472000000     0.076000000    -1.253000000
H     0.752000000    -0.002000000    -2.301000000
C     0.632000000    -1.029000000    -0.374000000
C     1.131000000    -2.387000000    -0.781000000
H     2.190000000    -2.583000000    -0.604000000
H     0.529000000    -3.082000000    -0.192000000
H     0.815000000    -2.616000000    -1.802000000
C     0.195000000    -0.863000000     0.951000000
H     0.103000000    -1.734000000     1.594000000
C    -0.461000000     0.278000000     1.351000000
H    -0.842000000     0.369000000     2.365000000
C    -0.569000000     1.401000000     0.475000000
C    -1.324000000     2.634000000     0.879000000
O    -2.156000000     2.557000000     1.780000000
O    -1.219000000     3.704000000     0.294000000
