17
-99.58106
C    -1.383000000    -0.323000000     0.159000000
H    -2.458000000    -0.481000000     0.202000000
C    -0.783000000    -0.041000000    -1.074000000
H    -1.453000000    -0.162000000    -1.922000000
C     0.577000000     0.228000000    -1.055000000
C     1.235000000     0.343000000    -2.360000000
H     1.133000000    -0.582000000    -2.931000000
H     0.644000000     1.050000000    -2.946000000
H     2.272000000     0.674000000    -2.272000000
C     1.246000000     0.399000000     0.132000000
H     2.273000000     0.754000000     0.143000000
C     0.648000000     0.111000000     1.338000000
H     1.306000000     0.051000000     2.202000000
C    -0.659000000    -0.281000000     1.353000000
C    -1.357000000    -0.530000000     2.678000000
O    -0.767000000    -0.199000000     3.724000000
O    -2.474000000    -1.007000000     2.624000000
