17
-99.50471
C    -0.610000000    -1.246000000    -0.581000000
H    -0.938000000    -2.157000000    -1.075000000
C     0.696000000    -1.116000000    -0.101000000
H     1.393000000    -1.947000000    -0.034000000
C     1.149000000     0.121000000     0.431000000
C     2.587000000     0.241000000     0.848000000
H     2.757000000     1.262000000     1.196000000
H     2.928000000    -0.448000000     1.623000000
H     3.207000000     0.100000000    -0.040000000
C     0.289000000     1.206000000     0.508000000
H     0.572000000     2.158000000     0.949000000
C    -0.998000000     1.086000000     0.004000000
H    -1.659000000     1.945000000     0.083000000
C    -1.520000000    -0.133000000    -0.507000000
C    -2.949000000    -0.357000000    -0.943000000
O    -3.578000000     0.678000000    -0.924000000
O    -3.332000000    -1.394000000    -1.438000000
