17
-93.90412
C    -0.046000000     1.429000000     0.210000000
H     0.161000000     2.495000000     0.167000000
C     0.422000000     0.743000000    -0.863000000
H     0.850000000     1.344000000    -1.661000000
C     0.418000000    -0.599000000    -0.938000000
C     1.005000000    -1.248000000    -2.171000000
H     0.541000000    -0.716000000    -3.005000000
H     2.067000000    -1.010000000    -2.254000000
H     0.849000000    -2.318000000    -2.325000000
C    -0.133000000    -1.370000000     0.116000000
H    -0.230000000    -2.451000000     0.054000000
C    -0.628000000    -0.702000000     1.195000000
H    -1.054000000    -1.338000000     1.966000000
C    -0.636000000     0.671000000     1.244000000
C    -1.049000000     1.497000000     2.432000000
O    -1.189000000     0.875000000     3.484000000
O    -1.341000000     2.705000000     2.342000000
