17
-95.28661
C    -1.451000000     0.221000000    -0.067000000
H    -2.504000000     0.197000000    -0.334000000
C    -0.586000000    -0.193000000    -1.106000000
H    -0.924000000    -0.506000000    -2.090000000
C     0.715000000    -0.384000000    -0.896000000
C     1.622000000    -0.803000000    -2.090000000
H     1.048000000    -1.167000000    -2.945000000
H     2.264000000     0.051000000    -2.317000000
H     2.375000000    -1.491000000    -1.700000000
C     1.238000000    -0.273000000     0.382000000
H     2.284000000    -0.493000000     0.582000000
C     0.404000000     0.238000000     1.391000000
H     0.838000000     0.324000000     2.383000000
C    -0.937000000     0.527000000     1.196000000
C    -1.875000000     1.126000000     2.255000000
O    -1.456000000     1.514000000     3.371000000
O    -3.058000000     1.108000000     1.985000000
