17
-96.32673
C     0.518000000     0.852000000     1.033000000
H     1.067000000     1.536000000     1.674000000
C     1.021000000     0.804000000    -0.245000000
H     1.939000000     1.318000000    -0.518000000
C     0.401000000     0.004000000    -1.156000000
C     1.017000000    -0.053000000    -2.488000000
H     0.561000000     0.777000000    -3.030000000
H     2.100000000     0.084000000    -2.494000000
H     0.829000000    -0.977000000    -3.039000000
C    -0.699000000    -0.801000000    -0.766000000
H    -1.094000000    -1.577000000    -1.415000000
C    -1.128000000    -0.834000000     0.533000000
H    -1.988000000    -1.483000000     0.673000000
C    -0.610000000     0.071000000     1.469000000
C    -1.158000000     0.092000000     2.900000000
O    -2.003000000    -0.798000000     3.238000000
O    -0.770000000     0.988000000     3.632000000
