17
-94.38238
C    -0.769000000    -0.337000000     1.226000000
H    -1.237000000    -0.411000000     2.204000000
C    -0.360000000     0.938000000     0.882000000
H    -0.668000000     1.771000000     1.509000000
C     0.358000000     1.115000000    -0.265000000
C     0.744000000     2.537000000    -0.690000000
H     1.420000000     2.377000000    -1.532000000
H    -0.139000000     3.021000000    -1.111000000
H     1.161000000     3.117000000     0.137000000
C     0.758000000     0.041000000    -1.033000000
H     1.338000000     0.229000000    -1.933000000
C     0.275000000    -1.224000000    -0.769000000
H     0.540000000    -2.041000000    -1.435000000
C    -0.487000000    -1.460000000     0.392000000
C    -0.881000000    -2.856000000     0.705000000
O    -0.784000000    -3.733000000    -0.106000000
O    -1.265000000    -3.092000000     1.825000000
