17
-100.52834
C    -0.231000000     1.043000000     1.049000000
H    -0.483000000     1.730000000     1.852000000
C    -0.321000000    -0.360000000     1.237000000
H    -0.778000000    -0.769000000     2.134000000
C    -0.044000000    -1.206000000     0.130000000
C    -0.284000000    -2.730000000     0.267000000
H     0.013000000    -3.117000000     1.244000000
H    -1.339000000    -2.989000000     0.156000000
H     0.345000000    -3.253000000    -0.456000000
C     0.232000000    -0.686000000    -1.137000000
H     0.268000000    -1.367000000    -1.984000000
C     0.349000000     0.706000000    -1.307000000
H     0.643000000     1.078000000    -2.286000000
C     0.201000000     1.544000000    -0.145000000
C     0.440000000     3.057000000    -0.246000000
O     0.679000000     3.591000000    -1.312000000
O     0.309000000     3.735000000     0.806000000
