17
-85.91700
C    -1.228000000    -0.417000000     0.656000000
H    -2.213000000    -0.724000000     0.996000000
C    -0.975000000     0.889000000     0.275000000
H    -1.702000000     1.693000000     0.347000000
C     0.303000000     1.123000000    -0.267000000
C     0.678000000     2.556000000    -0.564000000
H     0.596000000     2.864000000    -1.609000000
H     0.177000000     3.256000000     0.107000000
H     1.761000000     2.685000000    -0.507000000
C     1.162000000     0.075000000    -0.525000000
H     2.110000000     0.376000000    -0.964000000
C     0.838000000    -1.202000000    -0.198000000
H     1.471000000    -2.046000000    -0.458000000
C    -0.412000000    -1.433000000     0.354000000
C    -0.743000000    -2.826000000     0.707000000
O    -0.049000000    -3.769000000     0.405000000
O    -1.782000000    -3.092000000     1.241000000
