17
-91.99569
C    -0.804000000    -0.830000000     0.935000000
H    -1.585000000    -1.307000000     1.523000000
C    -0.975000000     0.571000000     0.736000000
H    -1.812000000     1.061000000     1.227000000
C    -0.168000000     1.241000000    -0.171000000
C    -0.471000000     2.585000000    -0.636000000
H    -1.184000000     3.102000000     0.009000000
H     0.421000000     3.212000000    -0.591000000
H    -0.909000000     2.595000000    -1.636000000
C     0.928000000     0.520000000    -0.756000000
H     1.611000000     1.023000000    -1.436000000
C     1.201000000    -0.773000000    -0.369000000
H     2.041000000    -1.252000000    -0.866000000
C     0.328000000    -1.486000000     0.369000000
C     0.409000000    -2.988000000     0.482000000
O     1.376000000    -3.619000000     0.078000000
O    -0.412000000    -3.649000000     1.102000000
