17
-94.98448
C    -0.044000000     0.894000000     1.192000000
H    -0.019000000     1.338000000     2.184000000
C    -0.255000000    -0.512000000     1.224000000
H    -0.326000000    -1.018000000     2.184000000
C    -0.233000000    -1.210000000     0.004000000
C    -0.347000000    -2.665000000     0.072000000
H    -1.317000000    -2.977000000     0.464000000
H    -0.175000000    -3.155000000    -0.889000000
H     0.377000000    -3.098000000     0.766000000
C     0.030000000    -0.571000000    -1.171000000
H    -0.013000000    -1.113000000    -2.112000000
C     0.330000000     0.767000000    -1.183000000
H     0.505000000     1.216000000    -2.157000000
C     0.190000000     1.592000000    -0.028000000
C     0.431000000     3.080000000    -0.125000000
O     0.813000000     3.585000000    -1.179000000
O     0.057000000     3.840000000     0.760000000
