17
-93.43577
C    -0.317000000     0.198000000     1.456000000
H    -0.741000000     0.370000000     2.442000000
C    -0.824000000     1.034000000     0.385000000
H    -1.578000000     1.802000000     0.535000000
C    -0.313000000     0.794000000    -0.884000000
C    -0.914000000     1.475000000    -2.143000000
H    -0.344000000     1.195000000    -3.031000000
H    -1.948000000     1.191000000    -2.352000000
H    -0.708000000     2.538000000    -2.005000000
C     0.612000000    -0.222000000    -1.063000000
H     0.900000000    -0.575000000    -2.050000000
C     1.014000000    -1.038000000    -0.079000000
H     1.663000000    -1.859000000    -0.375000000
C     0.527000000    -0.884000000     1.190000000
C     0.909000000    -1.746000000     2.372000000
O     1.661000000    -2.671000000     2.122000000
O     0.395000000    -1.609000000     3.484000000
