17
-90.10805
C    -1.213000000    -0.552000000     0.549000000
H    -2.170000000    -0.974000000     0.843000000
C    -1.017000000    -0.070000000    -0.710000000
H    -1.829000000    -0.120000000    -1.430000000
C     0.233000000     0.462000000    -1.125000000
C     0.297000000     0.979000000    -2.523000000
H    -0.345000000     1.860000000    -2.599000000
H     1.321000000     1.135000000    -2.870000000
H    -0.188000000     0.283000000    -3.210000000
C     1.206000000     0.553000000    -0.245000000
H     2.087000000     1.071000000    -0.616000000
C     1.044000000     0.006000000     1.038000000
H     1.944000000     0.025000000     1.648000000
C    -0.167000000    -0.580000000     1.476000000
C    -0.319000000    -1.209000000     2.841000000
O     0.376000000    -0.916000000     3.828000000
O    -1.257000000    -1.946000000     3.100000000
