17
-96.05890
C    -0.712000000    -0.946000000     0.889000000
H    -1.300000000    -1.648000000     1.475000000
C    -1.142000000    -0.430000000    -0.328000000
H    -2.112000000    -0.835000000    -0.605000000
C    -0.412000000     0.521000000    -1.034000000
C    -0.997000000     1.039000000    -2.362000000
H    -2.081000000     1.136000000    -2.273000000
H    -0.619000000     2.002000000    -2.713000000
H    -0.762000000     0.259000000    -3.089000000
C     0.870000000     0.828000000    -0.639000000
H     1.471000000     1.435000000    -1.312000000
C     1.336000000     0.331000000     0.613000000
H     2.388000000     0.492000000     0.838000000
C     0.525000000    -0.566000000     1.421000000
C     1.045000000    -1.120000000     2.706000000
O     2.217000000    -0.893000000     2.901000000
O     0.283000000    -1.603000000     3.510000000
