17
-92.80908
C    -1.366000000     0.175000000     0.522000000
H    -2.435000000     0.281000000     0.686000000
C    -0.866000000     0.691000000    -0.675000000
H    -1.443000000     1.354000000    -1.314000000
C     0.432000000     0.503000000    -1.067000000
C     1.039000000     0.997000000    -2.370000000
H     0.472000000     0.725000000    -3.263000000
H     1.051000000     2.088000000    -2.394000000
H     2.076000000     0.676000000    -2.486000000
C     1.231000000    -0.213000000    -0.146000000
H     2.287000000    -0.302000000    -0.385000000
C     0.778000000    -0.739000000     1.083000000
H     1.490000000    -1.198000000     1.764000000
C    -0.614000000    -0.629000000     1.324000000
C    -1.216000000    -1.323000000     2.516000000
O    -0.496000000    -1.768000000     3.392000000
O    -2.426000000    -1.310000000     2.808000000
