17
-95.86511
C    -0.915000000    -0.815000000    -0.785000000
H    -1.657000000    -1.312000000    -1.406000000
C    -1.183000000     0.473000000    -0.452000000
H    -2.121000000     0.953000000    -0.719000000
C    -0.231000000     1.157000000     0.259000000
C    -0.363000000     2.600000000     0.653000000
H    -1.432000000     2.811000000     0.570000000
H    -0.088000000     2.681000000     1.707000000
H     0.144000000     3.264000000    -0.049000000
C     0.938000000     0.558000000     0.707000000
H     1.700000000     1.100000000     1.263000000
C     1.127000000    -0.779000000     0.463000000
H     1.974000000    -1.389000000     0.768000000
C     0.248000000    -1.424000000    -0.362000000
C     0.527000000    -2.923000000    -0.746000000
O     1.645000000    -3.404000000    -0.532000000
O    -0.314000000    -3.551000000    -1.332000000
