17
-89.66476
C    -0.655000000    -1.208000000    -0.685000000
H    -1.237000000    -2.034000000    -1.086000000
C    -1.291000000    -0.162000000     0.048000000
H    -2.370000000    -0.240000000     0.151000000
C    -0.609000000     0.877000000     0.643000000
C    -1.365000000     1.897000000     1.450000000
H    -2.103000000     2.370000000     0.798000000
H    -1.963000000     1.359000000     2.189000000
H    -0.639000000     2.483000000     2.017000000
C     0.769000000     0.998000000     0.460000000
H     1.280000000     1.767000000     1.033000000
C     1.378000000     0.001000000    -0.347000000
H     2.452000000     0.162000000    -0.380000000
C     0.724000000    -1.082000000    -0.967000000
C     1.623000000    -2.095000000    -1.665000000
O     2.767000000    -1.848000000    -1.866000000
O     1.243000000    -3.245000000    -1.788000000
