17
-91.40793
C    -0.713000000    -1.305000000    -0.029000000
H    -1.286000000    -2.229000000    -0.020000000
C    -0.722000000    -0.409000000     1.071000000
H    -1.313000000    -0.599000000     1.964000000
C    -0.107000000     0.792000000     0.940000000
C    -0.278000000     1.936000000     1.954000000
H     0.541000000     1.823000000     2.668000000
H    -0.232000000     2.906000000     1.453000000
H    -1.255000000     1.771000000     2.412000000
C     0.735000000     1.015000000    -0.178000000
H     1.369000000     1.894000000    -0.258000000
C     0.898000000     0.089000000    -1.187000000
H     1.542000000     0.235000000    -2.050000000
C     0.145000000    -1.019000000    -1.155000000
C     0.130000000    -2.006000000    -2.262000000
O     0.879000000    -1.797000000    -3.232000000
O    -0.327000000    -3.101000000    -2.088000000
