17
-94.09156
C    -0.263000000    -1.082000000    -0.898000000
H    -0.650000000    -1.853000000    -1.559000000
C    -1.106000000    -0.049000000    -0.618000000
H    -2.064000000     0.070000000    -1.118000000
C    -0.767000000     0.888000000     0.325000000
C    -1.710000000     1.958000000     0.689000000
H    -2.524000000     1.601000000     1.323000000
H    -1.409000000     2.862000000     1.222000000
H    -2.207000000     2.301000000    -0.220000000
C     0.493000000     0.798000000     0.900000000
H     0.693000000     1.472000000     1.730000000
C     1.412000000    -0.103000000     0.476000000
H     2.388000000    -0.109000000     0.955000000
C     1.019000000    -1.198000000    -0.352000000
C     1.975000000    -2.239000000    -0.808000000
O     3.173000000    -2.131000000    -0.616000000
O     1.541000000    -3.192000000    -1.438000000
