17
-83.49125
C    -0.750000000    -1.307000000     0.152000000
H    -1.327000000    -2.220000000     0.274000000
C    -0.810000000    -0.219000000     1.037000000
H    -1.259000000    -0.276000000     2.026000000
C    -0.087000000     0.954000000     0.784000000
C    -0.061000000     1.999000000     1.817000000
H     0.564000000     1.636000000     2.635000000
H     0.271000000     2.952000000     1.399000000
H    -1.017000000     2.175000000     2.314000000
C     0.691000000     1.044000000    -0.360000000
H     1.278000000     1.924000000    -0.612000000
C     0.645000000     0.032000000    -1.232000000
H     1.206000000     0.259000000    -2.135000000
C    -0.021000000    -1.183000000    -1.033000000
C     0.111000000    -2.250000000    -2.116000000
O     1.045000000    -2.260000000    -2.896000000
O    -0.484000000    -3.266000000    -2.047000000
