17
-100.17542
C     0.327000000    -1.223000000     0.704000000
H     0.630000000    -2.066000000     1.319000000
C     0.041000000    -0.003000000     1.292000000
H     0.079000000     0.079000000     2.375000000
C    -0.139000000     1.105000000     0.502000000
C    -0.466000000     2.444000000     1.151000000
H    -1.264000000     2.334000000     1.888000000
H     0.405000000     2.793000000     1.708000000
H    -0.805000000     3.108000000     0.352000000
C    -0.267000000     0.994000000    -0.881000000
H    -0.587000000     1.846000000    -1.474000000
C    -0.114000000    -0.314000000    -1.446000000
H    -0.292000000    -0.423000000    -2.513000000
C     0.284000000    -1.394000000    -0.677000000
C     0.568000000    -2.750000000    -1.271000000
O     0.734000000    -2.809000000    -2.486000000
O     0.866000000    -3.713000000    -0.549000000
