17
-90.99061
C     1.179000000    -0.924000000     0.244000000
H     2.073000000    -1.498000000     0.475000000
C     1.134000000     0.443000000     0.629000000
H     1.913000000     0.841000000     1.273000000
C     0.002000000     1.177000000     0.218000000
C    -0.101000000     2.620000000     0.677000000
H     0.730000000     2.913000000     1.323000000
H    -0.428000000     3.304000000    -0.109000000
H    -0.897000000     2.566000000     1.423000000
C    -1.065000000     0.611000000    -0.328000000
H    -1.997000000     1.157000000    -0.449000000
C    -1.053000000    -0.779000000    -0.666000000
H    -1.916000000    -1.130000000    -1.227000000
C     0.089000000    -1.488000000    -0.426000000
C     0.107000000    -2.899000000    -0.895000000
O    -0.903000000    -3.420000000    -1.379000000
O     1.128000000    -3.498000000    -0.779000000
