17
-84.51156
C     0.039000000    -1.415000000     0.335000000
H    -0.097000000    -2.424000000     0.717000000
C    -0.111000000    -0.352000000     1.266000000
H    -0.477000000    -0.706000000     2.226000000
C    -0.197000000     0.958000000     0.797000000
C    -0.669000000     2.070000000     1.724000000
H    -0.373000000     3.011000000     1.255000000
H    -1.735000000     1.977000000     1.942000000
H    -0.169000000     2.024000000     2.693000000
C     0.113000000     1.219000000    -0.542000000
H     0.214000000     2.228000000    -0.934000000
C     0.396000000     0.137000000    -1.427000000
H     0.680000000     0.289000000    -2.466000000
C     0.372000000    -1.228000000    -1.011000000
C     0.745000000    -2.273000000    -1.952000000
O     0.683000000    -2.080000000    -3.116000000
O     0.579000000    -3.430000000    -1.513000000
