17
-98.72138
C    -0.287000000    -1.399000000    -0.415000000
H    -0.375000000    -2.450000000    -0.677000000
C     0.873000000    -0.953000000     0.290000000
H     1.624000000    -1.681000000     0.586000000
C     0.982000000     0.406000000     0.609000000
C     2.260000000     0.884000000     1.339000000
H     2.580000000     1.885000000     1.039000000
H     2.008000000     0.933000000     2.400000000
H     3.076000000     0.173000000     1.197000000
C     0.089000000     1.315000000     0.046000000
H     0.269000000     2.358000000     0.297000000
C    -1.104000000     0.820000000    -0.469000000
H    -1.914000000     1.538000000    -0.562000000
C    -1.351000000    -0.537000000    -0.745000000
C    -2.586000000    -0.956000000    -1.464000000
O    -3.620000000    -0.292000000    -1.409000000
O    -2.524000000    -2.036000000    -2.063000000
