17
-91.10136
C    -0.603000000    -1.272000000    -0.509000000
H    -0.868000000    -2.252000000    -0.896000000
C     0.721000000    -1.017000000    -0.191000000
H     1.435000000    -1.837000000    -0.194000000
C     1.177000000     0.201000000     0.315000000
C     2.675000000     0.537000000     0.600000000
H     2.852000000     1.509000000     0.135000000
H     2.926000000     0.491000000     1.661000000
H     3.436000000    -0.089000000     0.130000000
C     0.232000000     1.143000000     0.574000000
H     0.530000000     2.108000000     0.976000000
C    -1.086000000     0.945000000     0.235000000
H    -1.828000000     1.737000000     0.301000000
C    -1.536000000    -0.247000000    -0.415000000
C    -2.971000000    -0.566000000    -0.822000000
O    -3.808000000     0.239000000    -0.585000000
O    -3.288000000    -1.635000000    -1.322000000
