17
-86.99834
C    -0.722000000    -1.147000000     0.571000000
H    -1.209000000    -2.113000000     0.669000000
C     0.499000000    -0.771000000     1.052000000
H     1.076000000    -1.365000000     1.756000000
C     1.073000000     0.293000000     0.435000000
C     2.544000000     0.610000000     0.579000000
H     2.716000000     0.905000000     1.616000000
H     3.178000000    -0.240000000     0.320000000
H     2.888000000     1.381000000    -0.114000000
C     0.400000000     1.113000000    -0.471000000
H     0.981000000     1.887000000    -0.965000000
C    -0.917000000     0.876000000    -0.747000000
H    -1.286000000     1.462000000    -1.584000000
C    -1.468000000    -0.334000000    -0.301000000
C    -2.884000000    -0.736000000    -0.745000000
O    -3.764000000     0.069000000    -0.977000000
O    -3.099000000    -1.895000000    -1.099000000
