17
-96.95130
C    -0.328000000    -1.369000000    -0.589000000
H    -0.326000000    -2.309000000    -1.136000000
C     0.912000000    -0.954000000    -0.167000000
H     1.754000000    -1.642000000    -0.153000000
C     1.077000000     0.305000000     0.473000000
C     2.398000000     0.795000000     0.965000000
H     2.779000000     0.196000000     1.795000000
H     3.118000000     0.747000000     0.145000000
H     2.409000000     1.857000000     1.218000000
C    -0.005000000     1.095000000     0.647000000
H     0.140000000     2.082000000     1.079000000
C    -1.207000000     0.800000000     0.038000000
H    -2.042000000     1.477000000     0.199000000
C    -1.397000000    -0.454000000    -0.553000000
C    -2.739000000    -0.817000000    -1.133000000
O    -3.562000000     0.117000000    -1.300000000
O    -2.982000000    -1.929000000    -1.532000000
