17
-101.76287
C    -1.223000000    -0.618000000     0.607000000
H    -2.057000000    -1.164000000     1.041000000
C     0.077000000    -1.137000000     0.713000000
H     0.156000000    -2.078000000     1.252000000
C     1.161000000    -0.508000000     0.082000000
C     2.538000000    -1.038000000     0.266000000
H     3.020000000    -1.260000000    -0.688000000
H     3.142000000    -0.342000000     0.853000000
H     2.529000000    -2.020000000     0.742000000
C     0.930000000     0.673000000    -0.713000000
H     1.707000000     1.207000000    -1.254000000
C    -0.352000000     1.231000000    -0.754000000
H    -0.544000000     2.126000000    -1.340000000
C    -1.465000000     0.587000000    -0.106000000
C    -2.827000000     1.262000000    -0.198000000
O    -2.931000000     2.464000000    -0.480000000
O    -3.866000000     0.608000000    -0.022000000
