17
-91.86992
C     0.639000000     0.769000000     1.117000000
H     1.135000000     1.228000000     1.968000000
C     0.694000000    -0.625000000     0.938000000
H     1.326000000    -1.297000000     1.512000000
C     0.028000000    -1.234000000    -0.139000000
C     0.189000000    -2.736000000    -0.352000000
H    -0.294000000    -3.067000000    -1.274000000
H     1.263000000    -2.885000000    -0.477000000
H    -0.274000000    -3.098000000     0.568000000
C    -0.737000000    -0.480000000    -0.985000000
H    -1.187000000    -0.886000000    -1.887000000
C    -0.720000000     0.917000000    -0.894000000
H    -1.167000000     1.460000000    -1.723000000
C    -0.107000000     1.539000000     0.217000000
C    -0.271000000     3.012000000     0.423000000
O    -0.685000000     3.797000000    -0.443000000
O     0.162000000     3.588000000     1.428000000
