17
-90.60368
C    -0.534000000    -1.404000000    -0.030000000
H    -0.763000000    -2.466000000     0.013000000
C     0.793000000    -0.972000000    -0.147000000
H     1.503000000    -1.789000000    -0.247000000
C     1.185000000     0.342000000    -0.193000000
C     2.621000000     0.758000000    -0.188000000
H     2.992000000     0.425000000     0.784000000
H     3.069000000     0.241000000    -1.039000000
H     2.752000000     1.820000000    -0.408000000
C     0.225000000     1.308000000    -0.068000000
H     0.534000000     2.342000000    -0.204000000
C    -1.101000000     0.887000000     0.037000000
H    -1.813000000     1.708000000     0.056000000
C    -1.517000000    -0.452000000     0.081000000
C    -2.904000000    -0.817000000     0.398000000
O    -3.870000000    -0.090000000     0.158000000
O    -3.174000000    -1.839000000     1.005000000
