17
-90.30892
C    -0.807000000    -0.828000000     0.893000000
H    -1.287000000    -1.381000000     1.696000000
C     0.552000000    -0.950000000     0.682000000
H     1.091000000    -1.642000000     1.323000000
C     1.209000000    -0.134000000    -0.225000000
C     2.748000000    -0.161000000    -0.363000000
H     3.215000000     0.133000000     0.579000000
H     3.029000000    -1.199000000    -0.555000000
H     3.060000000     0.544000000    -1.136000000
C     0.458000000     0.710000000    -1.039000000
H     0.927000000     1.358000000    -1.776000000
C    -0.910000000     0.852000000    -0.786000000
H    -1.420000000     1.703000000    -1.230000000
C    -1.575000000     0.040000000     0.176000000
C    -3.006000000     0.262000000     0.524000000
O    -3.629000000     1.235000000     0.125000000
O    -3.650000000    -0.544000000     1.106000000
