17
-85.50411
C    -1.215000000    -0.700000000    -0.297000000
H    -2.074000000    -1.346000000    -0.461000000
C    -0.088000000    -1.319000000     0.287000000
H    -0.283000000    -2.283000000     0.750000000
C     1.107000000    -0.555000000     0.469000000
C     2.216000000    -1.097000000     1.181000000
H     2.614000000    -1.679000000     0.347000000
H     2.849000000    -0.251000000     1.458000000
H     1.875000000    -1.643000000     2.063000000
C     1.110000000     0.725000000    -0.009000000
H     1.964000000     1.347000000     0.249000000
C    -0.059000000     1.404000000    -0.532000000
H    -0.020000000     2.433000000    -0.879000000
C    -1.303000000     0.675000000    -0.683000000
C    -2.572000000     1.298000000    -1.142000000
O    -2.645000000     2.489000000    -1.485000000
O    -3.480000000     0.505000000    -1.318000000
