17
-97.73889
C     0.223000000     1.069000000     1.087000000
H     0.287000000     1.622000000     2.021000000
C     0.458000000    -0.363000000     1.170000000
H     0.704000000    -0.796000000     2.136000000
C     0.249000000    -1.203000000     0.058000000
C     0.499000000    -2.709000000     0.163000000
H     1.320000000    -2.850000000     0.869000000
H    -0.388000000    -3.259000000     0.484000000
H     0.961000000    -3.085000000    -0.752000000
C    -0.155000000    -0.661000000    -1.161000000
H    -0.383000000    -1.320000000    -1.995000000
C    -0.395000000     0.713000000    -1.192000000
H    -0.752000000     1.130000000    -2.130000000
C    -0.287000000     1.600000000    -0.097000000
C    -0.679000000     3.012000000    -0.201000000
O    -1.269000000     3.333000000    -1.191000000
O    -0.392000000     3.760000000     0.735000000
