17
-97.34776
C    -0.884000000     0.192000000    -1.138000000
H    -1.512000000     0.295000000    -2.019000000
C    -0.225000000    -0.955000000    -0.801000000
H    -0.409000000    -1.809000000    -1.448000000
C     0.659000000    -0.977000000     0.249000000
C     1.506000000    -2.243000000     0.507000000
H     1.037000000    -2.972000000     1.171000000
H     1.639000000    -2.826000000    -0.407000000
H     2.513000000    -2.001000000     0.855000000
C     0.729000000     0.059000000     1.097000000
H     1.438000000     0.004000000     1.919000000
C    -0.114000000     1.202000000     0.902000000
H    -0.047000000     2.039000000     1.592000000
C    -0.919000000     1.295000000    -0.257000000
C    -1.636000000     2.566000000    -0.667000000
O    -1.176000000     3.641000000    -0.197000000
O    -2.606000000     2.494000000    -1.359000000
