17
-95.99073
C    -0.811000000    -0.505000000    -1.149000000
H    -1.375000000    -0.900000000    -1.991000000
C    -0.316000000    -1.273000000    -0.122000000
H    -0.531000000    -2.333000000    -0.233000000
C     0.318000000    -0.680000000     0.987000000
C     0.887000000    -1.543000000     2.095000000
H     0.416000000    -2.519000000     2.226000000
H     1.944000000    -1.691000000     1.866000000
H     0.807000000    -1.076000000     3.079000000
C     0.653000000     0.666000000     0.889000000
H     1.155000000     1.168000000     1.713000000
C     0.217000000     1.485000000    -0.136000000
H     0.514000000     2.525000000    -0.030000000
C    -0.593000000     0.919000000    -1.157000000
C    -0.952000000     1.688000000    -2.364000000
O    -0.426000000     2.761000000    -2.621000000
O    -1.909000000     1.308000000    -3.049000000
