17
-84.50610
C     0.040000000    -0.116000000    -1.493000000
H     0.117000000    -0.191000000    -2.575000000
C     0.650000000    -0.972000000    -0.594000000
H     1.278000000    -1.764000000    -0.995000000
C     0.477000000    -0.787000000     0.772000000
C     1.382000000    -1.546000000     1.756000000
H     1.803000000    -0.953000000     2.571000000
H     0.773000000    -2.284000000     2.282000000
H     2.237000000    -1.964000000     1.221000000
C    -0.259000000     0.247000000     1.237000000
H    -0.216000000     0.369000000     2.316000000
C    -0.975000000     1.099000000     0.390000000
H    -1.545000000     1.945000000     0.766000000
C    -0.808000000     0.897000000    -0.976000000
C    -1.432000000     1.780000000    -1.978000000
O    -2.137000000     2.654000000    -1.575000000
O    -1.393000000     1.580000000    -3.131000000
