17
-89.37588
C    -0.365000000    -0.190000000    -1.408000000
H    -0.317000000    -0.396000000    -2.474000000
C     0.125000000    -1.203000000    -0.550000000
H     0.258000000    -2.180000000    -1.006000000
C     0.347000000    -0.944000000     0.772000000
C     0.681000000    -2.052000000     1.683000000
H     0.170000000    -2.988000000     1.448000000
H     1.772000000    -2.095000000     1.718000000
H     0.327000000    -1.726000000     2.663000000
C     0.323000000     0.390000000     1.202000000
H     0.544000000     0.635000000     2.238000000
C    -0.068000000     1.464000000     0.347000000
H    -0.108000000     2.467000000     0.764000000
C    -0.485000000     1.137000000    -0.962000000
C    -0.872000000     2.257000000    -1.943000000
O    -1.104000000     3.414000000    -1.463000000
O    -1.236000000     2.002000000    -3.024000000
