17
-93.03160
C     0.650000000     0.756000000    -1.126000000
H     1.078000000     1.259000000    -1.989000000
C     1.162000000    -0.505000000    -0.630000000
H     2.024000000    -1.014000000    -1.053000000
C     0.410000000    -1.094000000     0.397000000
C     0.873000000    -2.404000000     0.883000000
H     0.961000000    -3.039000000    -0.001000000
H     1.831000000    -2.367000000     1.405000000
H     0.051000000    -2.680000000     1.546000000
C    -0.770000000    -0.509000000     0.861000000
H    -1.419000000    -0.957000000     1.609000000
C    -1.113000000     0.734000000     0.526000000
H    -1.930000000     1.227000000     1.047000000
C    -0.489000000     1.332000000    -0.558000000
C    -0.966000000     2.718000000    -0.872000000
O    -1.786000000     3.294000000    -0.132000000
O    -0.562000000     3.252000000    -1.906000000
