17
-78.98473
C     0.079000000    -0.094000000    -1.575000000
H     0.076000000    -0.344000000    -2.633000000
C     0.154000000    -1.160000000    -0.616000000
H     0.219000000    -2.174000000    -1.002000000
C     0.239000000    -0.971000000     0.785000000
C     0.282000000    -2.134000000     1.673000000
H     1.292000000    -2.085000000     2.085000000
H    -0.422000000    -2.024000000     2.500000000
H     0.119000000    -3.042000000     1.088000000
C     0.090000000     0.324000000     1.251000000
H    -0.009000000     0.476000000     2.323000000
C    -0.107000000     1.428000000     0.400000000
H    -0.468000000     2.324000000     0.897000000
C    -0.106000000     1.214000000    -0.981000000
C    -0.357000000     2.428000000    -1.848000000
O    -0.529000000     3.550000000    -1.387000000
O    -0.550000000     2.280000000    -2.967000000
