17
-101.20641
C     0.030000000     1.477000000    -0.324000000
H     0.186000000     2.529000000    -0.551000000
C     0.985000000     0.719000000     0.343000000
H     1.925000000     1.214000000     0.578000000
C     0.854000000    -0.636000000     0.673000000
C     1.998000000    -1.382000000     1.385000000
H     2.623000000    -1.914000000     0.664000000
H     2.660000000    -0.690000000     1.910000000
H     1.697000000    -2.173000000     2.076000000
C    -0.300000000    -1.246000000     0.188000000
H    -0.388000000    -2.330000000     0.214000000
C    -1.243000000    -0.489000000    -0.466000000
H    -2.087000000    -1.040000000    -0.871000000
C    -1.153000000     0.861000000    -0.745000000
C    -2.318000000     1.540000000    -1.460000000
O    -3.435000000     0.967000000    -1.491000000
O    -2.030000000     2.591000000    -2.121000000
