17
-94.45155
C    -0.410000000     0.777000000    -1.241000000
H    -0.752000000     1.291000000    -2.136000000
C     0.899000000     0.507000000    -0.806000000
H     1.721000000     0.913000000    -1.390000000
C     1.170000000    -0.216000000     0.411000000
C     2.645000000    -0.425000000     0.860000000
H     3.317000000     0.068000000     0.156000000
H     2.739000000    -0.134000000     1.909000000
H     2.929000000    -1.468000000     0.706000000
C     0.091000000    -0.738000000     1.086000000
H     0.321000000    -1.242000000     2.021000000
C    -1.226000000    -0.431000000     0.780000000
H    -2.040000000    -0.902000000     1.325000000
C    -1.489000000     0.301000000    -0.425000000
C    -2.934000000     0.505000000    -0.956000000
O    -3.848000000     0.022000000    -0.346000000
O    -3.141000000     1.170000000    -1.958000000
