17
-95.81388
C    -1.314000000     0.276000000     0.718000000
H    -2.229000000     0.501000000     1.259000000
C    -0.212000000    -0.334000000     1.290000000
H    -0.136000000    -0.557000000     2.351000000
C     0.990000000    -0.533000000     0.596000000
C     2.361000000    -0.946000000     1.147000000
H     2.991000000    -0.113000000     1.464000000
H     2.277000000    -1.652000000     1.976000000
H     2.976000000    -1.414000000     0.376000000
C     0.988000000    -0.103000000    -0.757000000
H     1.905000000    -0.289000000    -1.311000000
C    -0.154000000     0.369000000    -1.414000000
H    -0.124000000     0.596000000    -2.477000000
C    -1.348000000     0.546000000    -0.664000000
C    -2.619000000     1.089000000    -1.369000000
O    -2.693000000     1.362000000    -2.528000000
O    -3.659000000     1.195000000    -0.663000000
