17
-98.02440
C     0.014000000     1.190000000     0.809000000
H    -0.034000000     2.023000000     1.505000000
C     0.410000000    -0.048000000     1.271000000
H     0.801000000    -0.095000000     2.284000000
C     0.292000000    -1.187000000     0.411000000
C     1.020000000    -2.478000000     0.752000000
H     0.310000000    -3.050000000     1.353000000
H     1.311000000    -3.035000000    -0.141000000
H     1.961000000    -2.195000000     1.229000000
C    -0.229000000    -0.973000000    -0.893000000
H    -0.332000000    -1.785000000    -1.609000000
C    -0.555000000     0.313000000    -1.320000000
H    -1.017000000     0.479000000    -2.290000000
C    -0.467000000     1.397000000    -0.478000000
C    -1.010000000     2.774000000    -0.846000000
O    -1.523000000     2.971000000    -1.979000000
O    -0.957000000     3.694000000    -0.066000000
