17
-88.01769
C    -0.145000000     1.467000000     0.157000000
H    -0.088000000     2.520000000     0.421000000
C     0.908000000     0.705000000     0.655000000
H     1.663000000     1.279000000     1.186000000
C     0.972000000    -0.690000000     0.369000000
C     2.114000000    -1.584000000     0.934000000
H     2.450000000    -2.342000000     0.223000000
H     2.881000000    -0.892000000     1.287000000
H     1.761000000    -2.189000000     1.772000000
C    -0.073000000    -1.259000000    -0.406000000
H    -0.043000000    -2.343000000    -0.475000000
C    -1.145000000    -0.420000000    -0.901000000
H    -1.924000000    -0.953000000    -1.440000000
C    -1.210000000     0.925000000    -0.618000000
C    -2.350000000     1.720000000    -0.993000000
O    -3.273000000     1.178000000    -1.530000000
O    -2.495000000     2.878000000    -0.645000000
