17
-84.68496
C     0.647000000     1.111000000     0.654000000
H     1.297000000     1.826000000     1.153000000
C     0.872000000    -0.206000000     0.940000000
H     1.633000000    -0.523000000     1.648000000
C     0.227000000    -1.250000000     0.257000000
C     0.287000000    -2.744000000     0.553000000
H    -0.485000000    -3.268000000    -0.014000000
H     1.260000000    -3.234000000     0.482000000
H    -0.047000000    -2.793000000     1.592000000
C    -0.662000000    -0.777000000    -0.709000000
H    -1.120000000    -1.554000000    -1.315000000
C    -0.883000000     0.582000000    -0.977000000
H    -1.381000000     0.869000000    -1.899000000
C    -0.311000000     1.592000000    -0.210000000
C    -0.347000000     3.044000000    -0.635000000
O    -1.177000000     3.365000000    -1.466000000
O     0.186000000     3.964000000    -0.050000000
