17
-97.91205
C    -0.188000000     1.335000000     0.578000000
H    -0.049000000     2.332000000     0.989000000
C     0.407000000     0.266000000     1.219000000
H     0.889000000     0.365000000     2.188000000
C     0.427000000    -0.985000000     0.556000000
C     1.079000000    -2.115000000     1.230000000
H     2.151000000    -1.905000000     1.213000000
H     0.870000000    -2.187000000     2.299000000
H     0.874000000    -3.091000000     0.784000000
C    -0.214000000    -1.148000000    -0.605000000
H    -0.280000000    -2.132000000    -1.061000000
C    -0.796000000    -0.069000000    -1.297000000
H    -1.290000000    -0.241000000    -2.250000000
C    -0.653000000     1.199000000    -0.770000000
C    -0.989000000     2.443000000    -1.501000000
O    -1.756000000     2.443000000    -2.463000000
O    -0.486000000     3.490000000    -1.104000000
