17
-98.19617
C    -1.138000000    -0.028000000     1.001000000
H    -1.838000000     0.067000000     1.827000000
C     0.181000000    -0.472000000     1.187000000
H     0.424000000    -0.798000000     2.195000000
C     1.103000000    -0.529000000     0.164000000
C     2.442000000    -0.970000000     0.567000000
H     2.535000000    -2.057000000     0.620000000
H     3.205000000    -0.605000000    -0.123000000
H     2.742000000    -0.631000000     1.561000000
C     0.788000000     0.084000000    -1.068000000
H     1.469000000     0.213000000    -1.904000000
C    -0.481000000     0.600000000    -1.287000000
H    -0.681000000     1.111000000    -2.225000000
C    -1.413000000     0.548000000    -0.259000000
C    -2.791000000     0.992000000    -0.635000000
O    -3.253000000     0.609000000    -1.704000000
O    -3.292000000     1.870000000     0.076000000
