17
-93.64116
C    -0.893000000     0.499000000     1.114000000
H    -1.368000000     0.835000000     2.033000000
C     0.357000000    -0.093000000     1.305000000
H     0.701000000    -0.170000000     2.334000000
C     1.085000000    -0.557000000     0.222000000
C     2.366000000    -1.337000000     0.287000000
H     2.170000000    -2.063000000     1.079000000
H     2.496000000    -1.901000000    -0.639000000
H     3.219000000    -0.736000000     0.610000000
C     0.556000000    -0.374000000    -1.050000000
H     1.037000000    -0.774000000    -1.939000000
C    -0.561000000     0.349000000    -1.257000000
H    -0.847000000     0.581000000    -2.280000000
C    -1.344000000     0.751000000    -0.168000000
C    -2.642000000     1.477000000    -0.464000000
O    -3.109000000     1.505000000    -1.604000000
O    -3.231000000     2.016000000     0.416000000
