17
-89.75557
C    -1.335000000    -0.513000000     0.444000000
H    -2.208000000    -0.864000000     0.988000000
C    -0.066000000    -1.103000000     0.782000000
H    -0.060000000    -1.868000000     1.554000000
C     1.087000000    -0.609000000     0.223000000
C     2.429000000    -1.055000000     0.621000000
H     2.475000000    -2.063000000     1.038000000
H     2.956000000    -0.961000000    -0.331000000
H     2.767000000    -0.368000000     1.400000000
C     1.043000000     0.436000000    -0.683000000
H     1.968000000     0.753000000    -1.159000000
C    -0.204000000     1.067000000    -0.966000000
H    -0.214000000     1.846000000    -1.725000000
C    -1.438000000     0.618000000    -0.340000000
C    -2.699000000     1.325000000    -0.556000000
O    -2.794000000     2.144000000    -1.452000000
O    -3.709000000     1.207000000     0.158000000
