17
-87.78600
C    -0.816000000     0.589000000     1.125000000
H    -1.275000000     0.957000000     2.039000000
C     0.557000000     0.753000000     0.897000000
H     1.056000000     1.358000000     1.650000000
C     1.199000000     0.186000000    -0.176000000
C     2.702000000     0.279000000    -0.418000000
H     3.092000000    -0.203000000    -1.317000000
H     2.964000000     1.332000000    -0.545000000
H     3.248000000    -0.077000000     0.458000000
C     0.452000000    -0.479000000    -1.104000000
H     0.949000000    -1.130000000    -1.819000000
C    -0.916000000    -0.661000000    -0.897000000
H    -1.504000000    -1.286000000    -1.564000000
C    -1.585000000    -0.177000000     0.231000000
C    -2.969000000    -0.533000000     0.447000000
O    -3.656000000    -0.704000000    -0.519000000
O    -3.493000000    -0.209000000     1.515000000
