17
-95.47047
C    -0.595000000    -0.235000000     1.393000000
H    -0.824000000    -0.524000000     2.415000000
C     0.723000000    -0.501000000     1.017000000
H     1.349000000    -0.963000000     1.776000000
C     1.197000000    -0.090000000    -0.220000000
C     2.647000000    -0.224000000    -0.637000000
H     3.304000000     0.597000000    -0.339000000
H     3.192000000    -1.129000000    -0.361000000
H     2.629000000    -0.197000000    -1.728000000
C     0.293000000     0.326000000    -1.196000000
H     0.650000000     0.565000000    -2.195000000
C    -1.086000000     0.472000000    -0.849000000
H    -1.722000000     0.869000000    -1.635000000
C    -1.556000000     0.209000000     0.420000000
C    -3.008000000     0.260000000     0.639000000
O    -3.785000000     0.511000000    -0.267000000
O    -3.411000000     0.050000000     1.773000000
