17
-94.43653
C    -0.519000000     1.131000000     0.865000000
H    -1.003000000     1.798000000     1.574000000
C     0.390000000     0.136000000     1.278000000
H     0.617000000     0.099000000     2.341000000
C     0.842000000    -0.794000000     0.395000000
C     1.936000000    -1.732000000     0.814000000
H     1.948000000    -2.528000000     0.066000000
H     2.904000000    -1.243000000     0.690000000
H     1.743000000    -2.032000000     1.846000000
C     0.371000000    -0.855000000    -0.894000000
H     0.680000000    -1.652000000    -1.566000000
C    -0.600000000     0.012000000    -1.371000000
H    -1.040000000    -0.160000000    -2.350000000
C    -1.090000000     0.991000000    -0.484000000
C    -2.156000000     1.981000000    -0.945000000
O    -2.639000000     1.851000000    -2.030000000
O    -2.389000000     2.989000000    -0.231000000
