17
-87.80427
C    -0.737000000    -0.804000000     1.034000000
H    -1.254000000    -1.405000000     1.776000000
C     0.548000000    -0.314000000     1.209000000
H     0.998000000    -0.445000000     2.190000000
C     1.146000000     0.443000000     0.172000000
C     2.430000000     1.061000000     0.330000000
H     3.198000000     0.285000000     0.312000000
H     2.737000000     1.759000000    -0.452000000
H     2.483000000     1.623000000     1.265000000
C     0.486000000     0.692000000    -1.007000000
H     0.887000000     1.248000000    -1.851000000
C    -0.798000000     0.227000000    -1.236000000
H    -1.335000000     0.438000000    -2.157000000
C    -1.399000000    -0.578000000    -0.197000000
C    -2.777000000    -1.198000000    -0.382000000
O    -3.433000000    -1.070000000    -1.406000000
O    -3.186000000    -1.967000000     0.403000000
