17
-99.55621
C    -0.830000000    -0.745000000     0.990000000
H    -1.219000000    -1.394000000     1.771000000
C     0.561000000    -0.476000000     1.086000000
H     1.148000000    -1.023000000     1.819000000
C     1.190000000     0.355000000     0.152000000
C     2.638000000     0.648000000     0.346000000
H     2.809000000     0.752000000     1.419000000
H     3.293000000    -0.136000000    -0.042000000
H     2.955000000     1.538000000    -0.200000000
C     0.452000000     0.762000000    -0.986000000
H     0.948000000     1.275000000    -1.806000000
C    -0.851000000     0.393000000    -1.115000000
H    -1.344000000     0.612000000    -2.059000000
C    -1.534000000    -0.267000000    -0.125000000
C    -3.029000000    -0.684000000    -0.383000000
O    -3.534000000    -0.391000000    -1.426000000
O    -3.649000000    -1.212000000     0.555000000
