17
-83.45764
C    -0.347000000     0.526000000     1.251000000
H    -0.464000000     0.983000000     2.231000000
C     0.901000000     0.358000000     0.781000000
H     1.750000000     0.680000000     1.379000000
C     1.158000000    -0.231000000    -0.433000000
C     2.559000000    -0.548000000    -0.772000000
H     3.087000000    -0.981000000     0.080000000
H     2.569000000    -1.153000000    -1.681000000
H     3.007000000     0.407000000    -1.055000000
C     0.100000000    -0.648000000    -1.128000000
H     0.098000000    -1.247000000    -2.035000000
C    -1.205000000    -0.233000000    -0.779000000
H    -2.007000000    -0.594000000    -1.417000000
C    -1.477000000     0.327000000     0.433000000
C    -2.851000000     0.724000000     0.890000000
O    -3.797000000     0.743000000     0.168000000
O    -3.083000000     0.879000000     2.079000000
