17
-92.38275
C     0.409000000     1.237000000     0.761000000
H     0.626000000     2.093000000     1.395000000
C     0.869000000    -0.058000000     0.942000000
H     1.588000000    -0.198000000     1.746000000
C     0.453000000    -1.156000000     0.210000000
C     1.027000000    -2.548000000     0.547000000
H     0.819000000    -2.675000000     1.611000000
H     0.513000000    -3.210000000    -0.153000000
H     2.102000000    -2.571000000     0.360000000
C    -0.407000000    -0.935000000    -0.863000000
H    -0.724000000    -1.705000000    -1.561000000
C    -0.952000000     0.315000000    -1.106000000
H    -1.595000000     0.567000000    -1.946000000
C    -0.617000000     1.393000000    -0.262000000
C    -1.200000000     2.774000000    -0.482000000
O    -2.199000000     2.925000000    -1.186000000
O    -0.708000000     3.754000000    -0.017000000
