17
-96.76928
C    -1.417000000     0.092000000     0.401000000
H    -2.438000000     0.206000000     0.755000000
C    -0.355000000     0.521000000     1.189000000
H    -0.487000000     0.915000000     2.193000000
C     0.958000000     0.350000000     0.709000000
C     2.160000000     0.684000000     1.508000000
H     2.076000000     0.647000000     2.596000000
H     2.971000000     0.025000000     1.193000000
H     2.472000000     1.718000000     1.347000000
C     1.192000000    -0.161000000    -0.580000000
H     2.170000000    -0.382000000    -1.002000000
C     0.079000000    -0.619000000    -1.349000000
H     0.128000000    -0.987000000    -2.370000000
C    -1.217000000    -0.456000000    -0.836000000
C    -2.440000000    -0.766000000    -1.717000000
O    -2.346000000    -0.930000000    -2.888000000
O    -3.501000000    -0.861000000    -1.151000000
