17
-92.07851
C    -1.445000000    -0.007000000     0.468000000
H    -2.423000000     0.152000000     0.915000000
C    -0.277000000     0.318000000     1.192000000
H    -0.360000000     0.709000000     2.203000000
C     1.001000000     0.271000000     0.674000000
C     2.205000000     0.598000000     1.596000000
H     3.043000000     1.045000000     1.058000000
H     1.856000000     1.287000000     2.369000000
H     2.599000000    -0.344000000     1.984000000
C     1.109000000    -0.021000000    -0.658000000
H     2.050000000    -0.095000000    -1.199000000
C     0.057000000    -0.467000000    -1.413000000
H     0.214000000    -0.705000000    -2.462000000
C    -1.274000000    -0.343000000    -0.876000000
C    -2.447000000    -0.738000000    -1.687000000
O    -2.315000000    -1.072000000    -2.871000000
O    -3.599000000    -0.596000000    -1.300000000
