17
-94.16243
C    -1.097000000     0.622000000     0.781000000
H    -1.881000000     1.067000000     1.388000000
C     0.241000000     0.686000000     1.109000000
H     0.554000000     1.279000000     1.964000000
C     1.228000000     0.032000000     0.273000000
C     2.681000000     0.245000000     0.604000000
H     3.301000000    -0.621000000     0.361000000
H     3.006000000     1.071000000    -0.033000000
H     2.804000000     0.522000000     1.653000000
C     0.740000000    -0.738000000    -0.759000000
H     1.490000000    -1.212000000    -1.387000000
C    -0.580000000    -0.886000000    -1.105000000
H    -0.950000000    -1.443000000    -1.963000000
C    -1.544000000    -0.252000000    -0.265000000
C    -2.982000000    -0.141000000    -0.751000000
O    -3.298000000    -0.922000000    -1.581000000
O    -3.706000000     0.699000000    -0.284000000
