17
-91.33713
C    -1.093000000     0.056000000     1.036000000
H    -1.737000000    -0.110000000     1.896000000
C     0.126000000     0.614000000     1.239000000
H     0.293000000     1.031000000     2.229000000
C     1.106000000     0.531000000     0.189000000
C     2.498000000     0.994000000     0.287000000
H     2.739000000     1.778000000     1.007000000
H     3.218000000     0.177000000     0.377000000
H     2.859000000     1.373000000    -0.672000000
C     0.709000000     0.044000000    -1.042000000
H     1.276000000     0.065000000    -1.969000000
C    -0.460000000    -0.633000000    -1.170000000
H    -0.720000000    -1.051000000    -2.139000000
C    -1.393000000    -0.653000000    -0.143000000
C    -2.781000000    -1.307000000    -0.324000000
O    -3.064000000    -1.709000000    -1.407000000
O    -3.573000000    -1.200000000     0.602000000
