17
-94.05645
C    -1.162000000    -0.080000000     0.878000000
H    -1.932000000     0.022000000     1.638000000
C     0.108000000     0.326000000     1.238000000
H     0.352000000     0.682000000     2.236000000
C     1.169000000     0.295000000     0.343000000
C     2.475000000     0.746000000     0.719000000
H     2.747000000     0.549000000     1.758000000
H     3.203000000     0.220000000     0.096000000
H     2.629000000     1.811000000     0.533000000
C     0.925000000    -0.144000000    -0.952000000
H     1.605000000     0.145000000    -1.750000000
C    -0.369000000    -0.563000000    -1.267000000
H    -0.540000000    -0.771000000    -2.320000000
C    -1.456000000    -0.486000000    -0.409000000
C    -2.882000000    -0.773000000    -0.832000000
O    -3.106000000    -1.279000000    -1.912000000
O    -3.771000000    -0.701000000     0.010000000
