17
-96.14818
C    -0.443000000     1.294000000     0.594000000
H    -0.455000000     2.252000000     1.108000000
C     0.122000000     0.258000000     1.337000000
H     0.490000000     0.397000000     2.350000000
C     0.425000000    -0.894000000     0.676000000
C     1.194000000    -1.977000000     1.430000000
H     0.584000000    -2.769000000     1.868000000
H     1.888000000    -2.487000000     0.758000000
H     1.734000000    -1.403000000     2.186000000
C     0.141000000    -1.094000000    -0.683000000
H     0.441000000    -2.039000000    -1.129000000
C    -0.568000000    -0.143000000    -1.362000000
H    -0.899000000    -0.223000000    -2.395000000
C    -0.778000000     1.155000000    -0.770000000
C    -1.171000000     2.278000000    -1.704000000
O    -1.421000000     1.961000000    -2.898000000
O    -1.287000000     3.432000000    -1.359000000
