17
-98.12376
C    -1.035000000     0.372000000     0.971000000
H    -1.722000000     0.791000000     1.702000000
C     0.253000000    -0.076000000     1.257000000
H     0.675000000    -0.068000000     2.259000000
C     1.126000000    -0.389000000     0.239000000
C     2.585000000    -0.711000000     0.591000000
H     3.032000000    -1.172000000    -0.292000000
H     3.157000000     0.148000000     0.947000000
H     2.611000000    -1.438000000     1.405000000
C     0.702000000    -0.252000000    -1.078000000
H     1.464000000    -0.388000000    -1.841000000
C    -0.630000000     0.008000000    -1.406000000
H    -0.938000000    -0.040000000    -2.447000000
C    -1.495000000     0.329000000    -0.356000000
C    -2.855000000     0.875000000    -0.566000000
O    -3.327000000     0.868000000    -1.748000000
O    -3.609000000     1.151000000     0.362000000
