17
-94.75119
C    -1.137000000     0.226000000     0.797000000
H    -1.869000000     0.521000000     1.545000000
C     0.198000000     0.467000000     1.128000000
H     0.424000000     0.786000000     2.142000000
C     1.200000000     0.189000000     0.254000000
C     2.621000000     0.402000000     0.804000000
H     2.861000000    -0.368000000     1.540000000
H     3.383000000     0.356000000     0.023000000
H     2.655000000     1.363000000     1.321000000
C     0.898000000    -0.371000000    -0.968000000
H     1.720000000    -0.651000000    -1.623000000
C    -0.478000000    -0.572000000    -1.376000000
H    -0.746000000    -0.945000000    -2.361000000
C    -1.498000000    -0.310000000    -0.441000000
C    -3.005000000    -0.355000000    -0.835000000
O    -3.423000000    -0.853000000    -1.877000000
O    -3.796000000     0.111000000    -0.072000000
