17
-90.67870
C    -1.167000000    -0.905000000    -0.185000000
H    -2.061000000    -1.459000000    -0.457000000
C    -0.650000000    -0.089000000    -1.151000000
H    -1.114000000    -0.112000000    -2.134000000
C     0.481000000     0.736000000    -0.853000000
C     1.161000000     1.614000000    -1.866000000
H     0.595000000     1.769000000    -2.787000000
H     1.330000000     2.564000000    -1.353000000
H     2.172000000     1.249000000    -2.060000000
C     1.053000000     0.720000000     0.383000000
H     1.909000000     1.369000000     0.547000000
C     0.468000000    -0.111000000     1.332000000
H     0.770000000    -0.159000000     2.375000000
C    -0.637000000    -0.915000000     1.122000000
C    -1.219000000    -1.894000000     2.055000000
O    -0.745000000    -2.082000000     3.173000000
O    -2.346000000    -2.294000000     1.855000000
