17
-91.97301
C    -0.606000000    -1.176000000    -0.735000000
H    -1.018000000    -1.973000000    -1.349000000
C     0.471000000    -0.394000000    -1.173000000
H     0.915000000    -0.641000000    -2.134000000
C     0.913000000     0.714000000    -0.416000000
C     2.138000000     1.458000000    -0.942000000
H     2.643000000     1.919000000    -0.091000000
H     2.841000000     0.872000000    -1.538000000
H     1.698000000     2.304000000    -1.475000000
C     0.353000000     0.984000000     0.861000000
H     0.802000000     1.720000000     1.522000000
C    -0.791000000     0.233000000     1.297000000
H    -1.396000000     0.589000000     2.127000000
C    -1.202000000    -0.825000000     0.472000000
C    -2.353000000    -1.640000000     1.004000000
O    -2.596000000    -1.615000000     2.217000000
O    -2.811000000    -2.528000000     0.356000000
