17
-85.17783
C    -0.974000000    -0.446000000     1.128000000
H    -1.616000000    -0.616000000     1.989000000
C    -0.461000000     0.838000000     0.942000000
H    -0.794000000     1.638000000     1.598000000
C     0.407000000     1.119000000    -0.159000000
C     0.869000000     2.557000000    -0.380000000
H     0.104000000     3.171000000    -0.861000000
H     1.188000000     2.940000000     0.591000000
H     1.718000000     2.429000000    -1.055000000
C     0.813000000     0.106000000    -1.001000000
H     1.513000000     0.320000000    -1.805000000
C     0.460000000    -1.165000000    -0.764000000
H     0.918000000    -1.906000000    -1.414000000
C    -0.568000000    -1.460000000     0.213000000
C    -1.104000000    -2.789000000     0.251000000
O    -0.601000000    -3.639000000    -0.423000000
O    -1.865000000    -3.097000000     1.147000000
