17
-99.30433
C    -1.415000000    -0.566000000    -0.018000000
H    -2.394000000    -0.963000000    -0.275000000
C    -0.619000000    -0.307000000    -1.073000000
H    -1.001000000    -0.500000000    -2.072000000
C     0.650000000     0.257000000    -1.022000000
C     1.538000000     0.409000000    -2.220000000
H     1.091000000    -0.161000000    -3.037000000
H     1.677000000     1.475000000    -2.409000000
H     2.512000000    -0.026000000    -1.988000000
C     1.097000000     0.599000000     0.234000000
H     2.053000000     1.109000000     0.320000000
C     0.384000000     0.302000000     1.385000000
H     0.815000000     0.571000000     2.346000000
C    -0.906000000    -0.302000000     1.246000000
C    -1.636000000    -0.602000000     2.533000000
O    -1.056000000    -0.285000000     3.617000000
O    -2.797000000    -1.006000000     2.432000000
