17
-97.57984
C    -0.975000000    -0.908000000     0.528000000
H    -1.707000000    -1.675000000     0.766000000
C    -0.121000000    -1.192000000    -0.578000000
H    -0.224000000    -2.094000000    -1.176000000
C     0.858000000    -0.272000000    -0.839000000
C     1.550000000    -0.392000000    -2.211000000
H     1.989000000     0.580000000    -2.448000000
H     2.301000000    -1.173000000    -2.347000000
H     0.696000000    -0.571000000    -2.868000000
C     0.967000000     0.892000000    -0.067000000
H     1.789000000     1.549000000    -0.341000000
C     0.159000000     1.146000000     1.047000000
H     0.216000000     2.021000000     1.689000000
C    -0.859000000     0.247000000     1.285000000
C    -1.917000000     0.530000000     2.302000000
O    -1.941000000     1.640000000     2.808000000
O    -2.785000000    -0.322000000     2.451000000
