17
-96.22538
C    -0.735000000    -0.575000000    -1.181000000
H    -1.273000000    -1.112000000    -1.958000000
C    -0.987000000    -0.841000000     0.102000000
H    -1.666000000    -1.637000000     0.400000000
C    -0.338000000    -0.119000000     1.163000000
C    -0.611000000    -0.531000000     2.637000000
H     0.219000000    -1.200000000     2.876000000
H    -0.512000000     0.358000000     3.263000000
H    -1.609000000    -0.970000000     2.700000000
C     0.645000000     0.785000000     0.841000000
H     1.165000000     1.269000000     1.663000000
C     1.060000000     0.905000000    -0.485000000
H     1.816000000     1.632000000    -0.771000000
C     0.291000000     0.318000000    -1.464000000
C     0.721000000     0.558000000    -2.876000000
O     1.903000000     0.923000000    -3.161000000
O    -0.094000000     0.237000000    -3.742000000
