17
-96.02263
C     0.490000000     1.114000000     0.768000000
H     0.613000000     1.956000000     1.445000000
C     0.210000000    -0.137000000     1.289000000
H     0.419000000    -0.279000000     2.346000000
C    -0.202000000    -1.140000000     0.426000000
C    -0.506000000    -2.509000000     0.953000000
H     0.223000000    -3.274000000     0.678000000
H    -0.520000000    -2.465000000     2.044000000
H    -1.469000000    -2.906000000     0.623000000
C    -0.329000000    -0.880000000    -0.962000000
H    -0.550000000    -1.687000000    -1.655000000
C    -0.028000000     0.394000000    -1.469000000
H    -0.022000000     0.622000000    -2.532000000
C     0.328000000     1.433000000    -0.566000000
C     0.505000000     2.850000000    -1.033000000
O     0.711000000     3.194000000    -2.149000000
O     0.132000000     3.718000000    -0.199000000
