17
-90.69147
C     0.233000000     1.448000000    -0.001000000
H     0.438000000     2.504000000     0.152000000
C    -0.208000000     0.657000000     1.121000000
H    -0.421000000     1.166000000     2.058000000
C    -0.464000000    -0.675000000     0.921000000
C    -1.060000000    -1.471000000     2.069000000
H    -1.965000000    -1.974000000     1.722000000
H    -0.287000000    -2.198000000     2.326000000
H    -1.192000000    -0.846000000     2.954000000
C    -0.233000000    -1.307000000    -0.307000000
H    -0.366000000    -2.378000000    -0.439000000
C     0.368000000    -0.560000000    -1.325000000
H     0.624000000    -1.001000000    -2.285000000
C     0.597000000     0.817000000    -1.159000000
C     1.162000000     1.682000000    -2.245000000
O     1.445000000     1.217000000    -3.329000000
O     1.323000000     2.913000000    -2.236000000
