17
-94.87197
C    -0.074000000     1.480000000    -0.016000000
H    -0.066000000     2.562000000     0.083000000
C     0.414000000     0.735000000     1.081000000
H     0.648000000     1.137000000     2.063000000
C     0.438000000    -0.641000000     0.934000000
C     0.916000000    -1.505000000     2.081000000
H     0.185000000    -2.315000000     2.115000000
H     1.877000000    -1.949000000     1.814000000
H     0.944000000    -1.021000000     3.059000000
C    -0.087000000    -1.251000000    -0.143000000
H    -0.036000000    -2.333000000    -0.242000000
C    -0.552000000    -0.499000000    -1.260000000
H    -0.892000000    -1.033000000    -2.143000000
C    -0.496000000     0.854000000    -1.238000000
C    -0.992000000     1.689000000    -2.400000000
O    -1.104000000     1.213000000    -3.533000000
O    -1.121000000     2.877000000    -2.251000000
