17
-95.61318
C     0.733000000     1.267000000    -0.068000000
H     1.245000000     2.225000000    -0.034000000
C     0.975000000     0.231000000     0.810000000
H     1.806000000     0.357000000     1.499000000
C     0.199000000    -0.957000000     0.809000000
C     0.741000000    -2.156000000     1.594000000
H     0.333000000    -3.067000000     1.152000000
H     1.829000000    -2.057000000     1.574000000
H     0.303000000    -2.054000000     2.589000000
C    -0.947000000    -0.914000000     0.031000000
H    -1.564000000    -1.808000000     0.077000000
C    -1.234000000     0.130000000    -0.855000000
H    -2.092000000     0.107000000    -1.522000000
C    -0.296000000     1.171000000    -1.001000000
C    -0.624000000     2.240000000    -1.968000000
O    -1.693000000     2.265000000    -2.595000000
O     0.283000000     3.021000000    -2.093000000
