17
-96.18892
C     1.100000000     0.967000000    -0.323000000
H     1.884000000     1.718000000    -0.269000000
C     1.072000000    -0.034000000     0.700000000
H     1.864000000    -0.067000000     1.444000000
C     0.034000000    -0.994000000     0.783000000
C     0.040000000    -1.964000000     1.950000000
H    -0.341000000    -1.402000000     2.805000000
H    -0.505000000    -2.902000000     1.821000000
H     1.087000000    -2.236000000     2.103000000
C    -0.990000000    -0.904000000    -0.115000000
H    -1.828000000    -1.578000000     0.044000000
C    -1.028000000     0.151000000    -1.071000000
H    -1.890000000     0.378000000    -1.693000000
C     0.031000000     1.049000000    -1.229000000
C    -0.125000000     2.275000000    -2.100000000
O    -1.236000000     2.601000000    -2.530000000
O     0.835000000     2.943000000    -2.323000000
