17
-98.26233
C     0.903000000     1.137000000    -0.403000000
H     1.649000000     1.915000000    -0.548000000
C     1.150000000     0.172000000     0.557000000
H     2.109000000     0.138000000     1.067000000
C     0.275000000    -0.911000000     0.757000000
C     0.721000000    -2.092000000     1.637000000
H     1.775000000    -2.019000000     1.912000000
H     0.126000000    -2.215000000     2.544000000
H     0.700000000    -2.934000000     0.942000000
C    -0.965000000    -0.835000000     0.183000000
H    -1.656000000    -1.593000000     0.542000000
C    -1.326000000     0.207000000    -0.652000000
H    -2.338000000     0.249000000    -1.046000000
C    -0.357000000     1.148000000    -1.015000000
C    -0.806000000     2.251000000    -1.968000000
O    -1.967000000     2.239000000    -2.493000000
O     0.007000000     3.142000000    -2.012000000
