17
-86.11667
C    -0.115000000     1.460000000     0.257000000
H    -0.168000000     2.518000000     0.501000000
C     0.642000000     0.528000000     0.993000000
H     1.317000000     0.899000000     1.761000000
C     0.676000000    -0.803000000     0.694000000
C     1.463000000    -1.799000000     1.510000000
H     1.035000000    -2.779000000     1.286000000
H     2.495000000    -1.731000000     1.160000000
H     1.499000000    -1.521000000     2.566000000
C    -0.178000000    -1.195000000    -0.312000000
H    -0.213000000    -2.261000000    -0.524000000
C    -0.883000000    -0.343000000    -1.119000000
H    -1.590000000    -0.648000000    -1.887000000
C    -0.768000000     1.047000000    -0.867000000
C    -1.448000000     2.002000000    -1.778000000
O    -1.759000000     1.654000000    -2.888000000
O    -2.004000000     2.971000000    -1.347000000
