17
-90.85453
C    -0.827000000     0.546000000     1.104000000
H    -1.324000000     0.818000000     2.031000000
C     0.021000000    -0.621000000     1.093000000
H     0.127000000    -1.364000000     1.880000000
C     0.788000000    -0.974000000     0.009000000
C     1.601000000    -2.225000000     0.129000000
H     2.218000000    -2.249000000    -0.772000000
H     2.299000000    -2.138000000     0.964000000
H     0.869000000    -3.026000000     0.252000000
C     0.694000000    -0.223000000    -1.139000000
H     1.160000000    -0.490000000    -2.084000000
C    -0.205000000     0.803000000    -1.227000000
H    -0.439000000     1.315000000    -2.157000000
C    -0.953000000     1.264000000    -0.066000000
C    -1.751000000     2.570000000     0.008000000
O    -1.794000000     3.233000000    -0.988000000
O    -2.492000000     2.754000000     0.963000000
