17
-94.31208
C    -1.129000000     0.025000000     1.021000000
H    -1.790000000     0.132000000     1.877000000
C     0.075000000    -0.629000000     1.150000000
H     0.279000000    -1.169000000     2.071000000
C     1.052000000    -0.726000000     0.101000000
C     2.384000000    -1.390000000     0.254000000
H     2.304000000    -2.459000000     0.048000000
H     3.146000000    -0.945000000    -0.389000000
H     2.715000000    -1.177000000     1.273000000
C     0.754000000    -0.040000000    -1.104000000
H     1.380000000    -0.064000000    -1.993000000
C    -0.462000000     0.718000000    -1.255000000
H    -0.765000000     1.324000000    -2.105000000
C    -1.367000000     0.711000000    -0.209000000
C    -2.549000000     1.628000000    -0.252000000
O    -2.719000000     2.384000000    -1.174000000
O    -3.315000000     1.677000000     0.684000000
