17
-91.54305
C    -0.947000000     0.129000000     1.141000000
H    -1.642000000     0.046000000     1.973000000
C     0.180000000    -0.644000000     1.147000000
H     0.493000000    -1.190000000     2.033000000
C     1.028000000    -0.644000000     0.001000000
C     2.194000000    -1.591000000    -0.036000000
H     2.704000000    -1.379000000    -0.978000000
H     2.849000000    -1.267000000     0.775000000
H     1.928000000    -2.638000000     0.121000000
C     0.635000000     0.017000000    -1.133000000
H     1.280000000    -0.097000000    -2.000000000
C    -0.456000000     0.882000000    -1.142000000
H    -0.621000000     1.545000000    -1.988000000
C    -1.258000000     0.894000000     0.016000000
C    -2.478000000     1.767000000     0.031000000
O    -2.555000000     2.707000000    -0.729000000
O    -3.333000000     1.465000000     0.761000000
