17
-87.47626
C    -1.004000000     0.486000000     0.987000000
H    -1.857000000     0.783000000     1.592000000
C    -0.196000000    -0.690000000     1.177000000
H    -0.229000000    -1.347000000     2.042000000
C     0.699000000    -0.969000000     0.087000000
C     1.600000000    -2.164000000     0.210000000
H     2.270000000    -2.332000000    -0.636000000
H     2.284000000    -2.040000000     1.053000000
H     1.128000000    -3.141000000     0.334000000
C     0.816000000    -0.102000000    -0.935000000
H     1.639000000    -0.326000000    -1.609000000
C     0.056000000     0.971000000    -1.074000000
H     0.100000000     1.503000000    -2.020000000
C    -0.942000000     1.266000000    -0.140000000
C    -1.870000000     2.389000000    -0.319000000
O    -1.485000000     3.339000000    -0.944000000
O    -3.004000000     2.371000000     0.189000000
