17
-96.40505
C    -1.425000000    -0.023000000     0.485000000
H    -2.372000000    -0.160000000     1.002000000
C    -0.527000000    -1.124000000     0.520000000
H    -0.945000000    -2.092000000     0.783000000
C     0.788000000    -0.996000000     0.039000000
C     1.738000000    -2.155000000     0.153000000
H     1.152000000    -3.075000000     0.097000000
H     2.396000000    -2.216000000    -0.716000000
H     2.253000000    -1.943000000     1.092000000
C     1.132000000     0.240000000    -0.469000000
H     2.116000000     0.344000000    -0.918000000
C     0.249000000     1.320000000    -0.573000000
H     0.651000000     2.257000000    -0.949000000
C    -0.993000000     1.219000000    -0.042000000
C    -1.840000000     2.496000000    -0.053000000
O    -1.314000000     3.583000000    -0.310000000
O    -3.056000000     2.330000000    -0.137000000
