17
-96.74937
C    -1.327000000    -0.151000000     0.518000000
H    -2.311000000    -0.386000000     0.916000000
C    -0.482000000    -1.218000000     0.334000000
H    -0.777000000    -2.228000000     0.606000000
C     0.760000000    -0.924000000    -0.167000000
C     1.745000000    -2.044000000    -0.402000000
H     2.073000000    -2.296000000     0.609000000
H     1.350000000    -2.916000000    -0.928000000
H     2.591000000    -1.637000000    -0.961000000
C     1.162000000     0.426000000    -0.522000000
H     2.093000000     0.683000000    -1.021000000
C     0.289000000     1.443000000    -0.263000000
H     0.485000000     2.445000000    -0.637000000
C    -0.968000000     1.192000000     0.214000000
C    -1.949000000     2.257000000     0.547000000
O    -1.642000000     3.434000000     0.334000000
O    -3.091000000     1.915000000     0.820000000
