17
-91.76030
C    -0.567000000    -1.157000000    -0.635000000
H    -1.019000000    -1.946000000    -1.231000000
C     0.550000000    -0.472000000    -1.068000000
H     1.080000000    -0.701000000    -1.989000000
C     0.979000000     0.652000000    -0.343000000
C     2.094000000     1.420000000    -0.963000000
H     2.128000000     2.478000000    -0.696000000
H     3.053000000     0.933000000    -0.776000000
H     2.020000000     1.389000000    -2.053000000
C     0.323000000     0.991000000     0.770000000
H     0.708000000     1.861000000     1.296000000
C    -0.761000000     0.291000000     1.237000000
H    -1.221000000     0.580000000     2.178000000
C    -1.269000000    -0.817000000     0.523000000
C    -2.394000000    -1.617000000     1.075000000
O    -3.167000000    -1.101000000     1.854000000
O    -2.542000000    -2.777000000     0.829000000
