17
-94.79162
C    -1.244000000     0.840000000    -0.020000000
H    -2.140000000     1.400000000     0.233000000
C    -1.129000000    -0.458000000     0.406000000
H    -1.984000000    -0.983000000     0.824000000
C     0.012000000    -1.206000000     0.353000000
C     0.113000000    -2.602000000     0.963000000
H     0.276000000    -3.368000000     0.202000000
H     1.051000000    -2.692000000     1.514000000
H    -0.826000000    -2.781000000     1.492000000
C     1.149000000    -0.550000000    -0.212000000
H     2.073000000    -1.110000000    -0.335000000
C     1.116000000     0.775000000    -0.566000000
H     1.991000000     1.330000000    -0.897000000
C    -0.111000000     1.535000000    -0.475000000
C    -0.103000000     2.902000000    -0.984000000
O     0.939000000     3.545000000    -1.182000000
O    -1.177000000     3.420000000    -1.320000000
