17
-102.94920
C    -0.805000000     0.964000000     0.739000000
H    -1.470000000     1.495000000     1.416000000
C    -0.717000000    -0.428000000     0.996000000
H    -1.232000000    -0.868000000     1.846000000
C     0.109000000    -1.221000000     0.174000000
C     0.249000000    -2.635000000     0.555000000
H     1.207000000    -3.082000000     0.280000000
H     0.103000000    -2.774000000     1.629000000
H    -0.582000000    -3.155000000     0.073000000
C     0.671000000    -0.693000000    -1.017000000
H     1.286000000    -1.319000000    -1.659000000
C     0.629000000     0.701000000    -1.152000000
H     1.117000000     1.131000000    -2.023000000
C    -0.090000000     1.537000000    -0.277000000
C    -0.139000000     3.063000000    -0.484000000
O     0.614000000     3.614000000    -1.297000000
O    -0.956000000     3.663000000     0.208000000
