17
-95.70545
C    -0.962000000    -0.381000000     1.046000000
H    -1.562000000    -0.504000000     1.944000000
C     0.154000000    -1.118000000     0.790000000
H     0.261000000    -2.064000000     1.316000000
C     1.049000000    -0.584000000    -0.180000000
C     2.308000000    -1.370000000    -0.590000000
H     2.000000000    -2.414000000    -0.672000000
H     2.777000000    -1.031000000    -1.516000000
H     3.023000000    -1.371000000     0.235000000
C     0.680000000     0.463000000    -1.004000000
H     1.291000000     0.793000000    -1.840000000
C    -0.439000000     1.205000000    -0.686000000
H    -0.771000000     2.043000000    -1.293000000
C    -1.289000000     0.769000000     0.307000000
C    -2.502000000     1.618000000     0.621000000
O    -2.754000000     2.625000000    -0.022000000
O    -3.260000000     1.313000000     1.548000000
