17
-98.26447
C    -1.113000000    -0.010000000     0.873000000
H    -1.963000000    -0.159000000     1.534000000
C    -0.061000000    -0.916000000     0.931000000
H    -0.008000000    -1.704000000     1.679000000
C     0.974000000    -0.751000000     0.018000000
C     1.983000000    -1.826000000    -0.028000000
H     1.573000000    -2.748000000    -0.443000000
H     2.787000000    -1.642000000    -0.744000000
H     2.465000000    -2.138000000     0.901000000
C     0.960000000     0.271000000    -0.940000000
H     1.683000000     0.314000000    -1.751000000
C    -0.061000000     1.280000000    -0.872000000
H    -0.135000000     2.093000000    -1.590000000
C    -1.142000000     1.108000000     0.053000000
C    -2.329000000     2.041000000     0.099000000
O    -2.367000000     2.978000000    -0.630000000
O    -3.246000000     1.810000000     0.918000000
