17
-85.64630
C    -1.363000000     0.272000000    -0.293000000
H    -2.437000000     0.270000000    -0.460000000
C    -0.547000000    -0.474000000    -1.135000000
H    -0.954000000    -0.889000000    -2.054000000
C     0.753000000    -0.678000000    -0.771000000
C     1.738000000    -1.409000000    -1.593000000
H     2.494000000    -0.729000000    -1.991000000
H     2.211000000    -2.200000000    -1.007000000
H     1.067000000    -1.827000000    -2.346000000
C     1.259000000    -0.001000000     0.341000000
H     2.327000000     0.067000000     0.536000000
C     0.381000000     0.683000000     1.202000000
H     0.752000000     1.126000000     2.123000000
C    -0.950000000     0.855000000     0.911000000
C    -1.963000000     1.440000000     1.913000000
O    -1.590000000     2.037000000     2.869000000
O    -3.172000000     1.449000000     1.751000000
