17
-98.22371
C    -1.398000000     0.422000000    -0.261000000
H    -2.435000000     0.603000000    -0.534000000
C    -0.572000000    -0.204000000    -1.188000000
H    -0.981000000    -0.440000000    -2.167000000
C     0.738000000    -0.567000000    -0.824000000
C     1.799000000    -1.268000000    -1.751000000
H     2.796000000    -0.831000000    -1.834000000
H     2.005000000    -2.253000000    -1.327000000
H     1.335000000    -1.417000000    -2.728000000
C     1.139000000    -0.267000000     0.492000000
H     2.100000000    -0.690000000     0.773000000
C     0.334000000     0.448000000     1.384000000
H     0.726000000     0.753000000     2.350000000
C    -0.973000000     0.828000000     0.996000000
C    -1.925000000     1.449000000     1.934000000
O    -1.657000000     1.502000000     3.144000000
O    -3.026000000     1.938000000     1.538000000
