17
-94.04573
C    -0.909000000     0.195000000    -1.126000000
H    -1.428000000     0.348000000    -2.069000000
C     0.306000000     0.866000000    -0.985000000
H     0.780000000     1.411000000    -1.796000000
C     0.972000000     0.660000000     0.186000000
C     2.362000000     1.373000000     0.444000000
H     2.910000000     0.930000000     1.277000000
H     3.004000000     1.168000000    -0.416000000
H     2.364000000     2.459000000     0.557000000
C     0.574000000    -0.246000000     1.145000000
H     1.154000000    -0.443000000     2.043000000
C    -0.631000000    -0.940000000     0.946000000
H    -1.051000000    -1.707000000     1.591000000
C    -1.378000000    -0.745000000    -0.211000000
C    -2.688000000    -1.530000000    -0.447000000
O    -3.191000000    -2.220000000     0.424000000
O    -3.152000000    -1.577000000    -1.559000000
