17
-88.94917
C    -1.017000000     0.185000000    -1.022000000
H    -1.588000000     0.335000000    -1.935000000
C    -0.057000000     1.092000000    -0.712000000
H     0.106000000     1.968000000    -1.334000000
C     0.862000000     0.825000000     0.263000000
C     1.962000000     1.807000000     0.633000000
H     2.141000000     1.795000000     1.711000000
H     2.953000000     1.624000000     0.213000000
H     1.613000000     2.758000000     0.227000000
C     0.800000000    -0.431000000     0.882000000
H     1.473000000    -0.655000000     1.706000000
C    -0.197000000    -1.339000000     0.679000000
H    -0.128000000    -2.319000000     1.143000000
C    -1.109000000    -1.015000000    -0.348000000
C    -2.247000000    -1.958000000    -0.701000000
O    -2.291000000    -3.077000000    -0.180000000
O    -3.284000000    -1.597000000    -1.232000000
