17
-99.82871
C    -0.975000000     0.823000000    -0.776000000
H    -1.586000000     1.448000000    -1.422000000
C     0.084000000     1.370000000     0.035000000
H     0.262000000     2.442000000     0.039000000
C     0.896000000     0.478000000     0.701000000
C     1.987000000     0.976000000     1.595000000
H     1.598000000     1.106000000     2.607000000
H     2.812000000     0.261000000     1.615000000
H     2.359000000     1.940000000     1.241000000
C     0.763000000    -0.935000000     0.537000000
H     1.427000000    -1.648000000     1.018000000
C    -0.249000000    -1.443000000    -0.253000000
H    -0.343000000    -2.526000000    -0.255000000
C    -1.154000000    -0.595000000    -0.874000000
C    -2.335000000    -1.105000000    -1.678000000
O    -2.445000000    -2.289000000    -1.900000000
O    -3.094000000    -0.303000000    -2.222000000
