17
-82.14515
C    -1.341000000     0.430000000    -0.185000000
H    -2.311000000     0.911000000    -0.280000000
C    -0.344000000     1.217000000     0.192000000
H    -0.542000000     2.272000000     0.365000000
C     0.879000000     0.757000000     0.162000000
C     2.075000000     1.658000000     0.497000000
H     2.950000000     1.362000000    -0.085000000
H     1.838000000     2.723000000     0.543000000
H     2.286000000     1.550000000     1.563000000
C     1.169000000    -0.622000000     0.018000000
H     2.171000000    -1.041000000     0.064000000
C     0.131000000    -1.512000000    -0.173000000
H     0.211000000    -2.596000000    -0.186000000
C    -1.177000000    -0.959000000    -0.278000000
C    -2.319000000    -1.831000000    -0.660000000
O    -2.367000000    -3.037000000    -0.480000000
O    -3.304000000    -1.277000000    -1.079000000
