17
-86.71235
C    -1.399000000     0.270000000    -0.429000000
H    -2.436000000     0.545000000    -0.609000000
C    -0.543000000     1.143000000     0.256000000
H    -0.830000000     2.180000000     0.413000000
C     0.741000000     0.737000000     0.595000000
C     1.690000000     1.747000000     1.237000000
H     1.226000000     2.724000000     1.086000000
H     1.732000000     1.593000000     2.318000000
H     2.721000000     1.613000000     0.903000000
C     1.186000000    -0.479000000     0.234000000
H     2.226000000    -0.744000000     0.406000000
C     0.285000000    -1.378000000    -0.336000000
H     0.604000000    -2.376000000    -0.627000000
C    -0.950000000    -0.975000000    -0.743000000
C    -1.850000000    -1.927000000    -1.368000000
O    -1.779000000    -3.103000000    -1.123000000
O    -2.621000000    -1.564000000    -2.207000000
