17
-97.78890
C    -1.397000000     0.219000000     0.477000000
H    -2.349000000     0.532000000     0.899000000
C    -0.351000000     1.053000000     0.654000000
H    -0.475000000     2.001000000     1.171000000
C     0.938000000     0.714000000     0.192000000
C     2.146000000     1.606000000     0.568000000
H     2.924000000     1.199000000    -0.081000000
H     1.993000000     2.670000000     0.374000000
H     2.519000000     1.489000000     1.588000000
C     1.081000000    -0.386000000    -0.618000000
H     2.061000000    -0.639000000    -1.015000000
C     0.019000000    -1.234000000    -0.870000000
H     0.246000000    -2.019000000    -1.587000000
C    -1.217000000    -0.902000000    -0.340000000
C    -2.406000000    -1.852000000    -0.453000000
O    -2.650000000    -2.395000000    -1.529000000
O    -3.090000000    -2.049000000     0.563000000
