17
-93.45301
C    -1.414000000    -0.303000000     0.349000000
H    -2.491000000    -0.409000000     0.448000000
C    -0.820000000     0.860000000     0.617000000
H    -1.246000000     1.715000000     1.136000000
C     0.526000000     1.096000000     0.215000000
C     1.191000000     2.403000000     0.429000000
H     0.508000000     3.067000000     0.962000000
H     2.113000000     2.229000000     0.988000000
H     1.341000000     2.893000000    -0.535000000
C     1.239000000     0.059000000    -0.375000000
H     2.275000000     0.292000000    -0.607000000
C     0.633000000    -1.200000000    -0.551000000
H     1.076000000    -2.123000000    -0.917000000
C    -0.675000000    -1.352000000    -0.235000000
C    -1.330000000    -2.697000000    -0.585000000
O    -0.884000000    -3.292000000    -1.553000000
O    -2.047000000    -3.237000000     0.215000000
