17
-90.39176
C    -0.786000000    -0.757000000     1.047000000
H    -1.301000000    -1.294000000     1.839000000
C    -0.773000000     0.633000000     0.857000000
H    -1.414000000     1.222000000     1.507000000
C    -0.104000000     1.255000000    -0.200000000
C     0.024000000     2.781000000    -0.338000000
H     0.569000000     3.378000000     0.397000000
H     0.492000000     2.953000000    -1.310000000
H    -0.979000000     3.213000000    -0.320000000
C     0.733000000     0.389000000    -0.940000000
H     1.331000000     0.765000000    -1.767000000
C     0.647000000    -1.029000000    -0.867000000
H     1.348000000    -1.598000000    -1.473000000
C    -0.072000000    -1.601000000     0.200000000
C     0.058000000    -3.039000000     0.418000000
O     1.050000000    -3.659000000    -0.018000000
O    -0.822000000    -3.604000000     0.973000000
