17
-94.74027
C    -0.928000000    -0.850000000     0.762000000
H    -1.674000000    -1.393000000     1.335000000
C    -1.188000000     0.417000000     0.161000000
H    -2.188000000     0.843000000     0.183000000
C    -0.225000000     1.196000000    -0.423000000
C    -0.666000000     2.412000000    -1.156000000
H    -1.336000000     2.095000000    -1.958000000
H    -1.136000000     3.154000000    -0.507000000
H     0.181000000     2.963000000    -1.568000000
C     1.063000000     0.699000000    -0.436000000
H     1.840000000     1.216000000    -0.993000000
C     1.321000000    -0.633000000     0.034000000
H     2.327000000    -1.034000000    -0.060000000
C     0.351000000    -1.422000000     0.694000000
C     0.661000000    -2.857000000     1.179000000
O     1.803000000    -3.096000000     1.395000000
O    -0.205000000    -3.712000000     1.355000000
