17
-89.11208
C    -0.480000000    -1.013000000     0.940000000
H    -0.928000000    -1.679000000     1.673000000
C    -1.045000000     0.251000000     0.791000000
H    -1.960000000     0.584000000     1.274000000
C    -0.595000000     1.093000000    -0.224000000
C    -1.239000000     2.327000000    -0.484000000
H    -2.145000000     2.097000000    -1.048000000
H    -1.591000000     2.807000000     0.431000000
H    -0.634000000     3.078000000    -0.998000000
C     0.545000000     0.753000000    -0.920000000
H     0.945000000     1.472000000    -1.631000000
C     1.231000000    -0.460000000    -0.630000000
H     2.224000000    -0.573000000    -1.059000000
C     0.714000000    -1.420000000     0.226000000
C     1.436000000    -2.759000000     0.507000000
O     2.497000000    -2.929000000    -0.054000000
O     1.023000000    -3.634000000     1.201000000
