17
-95.59330
C    -0.574000000    -0.839000000     0.972000000
H    -0.902000000    -1.419000000     1.831000000
C    -0.514000000     0.574000000     1.052000000
H    -0.863000000     1.085000000     1.946000000
C     0.087000000     1.242000000     0.050000000
C     0.161000000     2.734000000     0.172000000
H    -0.691000000     3.271000000    -0.250000000
H     0.274000000     3.078000000     1.202000000
H     0.991000000     3.121000000    -0.425000000
C     0.610000000     0.572000000    -1.067000000
H     1.254000000     1.026000000    -1.815000000
C     0.373000000    -0.840000000    -1.173000000
H     0.735000000    -1.340000000    -2.067000000
C    -0.183000000    -1.583000000    -0.139000000
C    -0.237000000    -3.147000000    -0.104000000
O     0.281000000    -3.810000000    -0.984000000
O    -0.799000000    -3.722000000     0.798000000
