17
-85.85410
C     0.555000000    -0.432000000     1.333000000
H     1.080000000    -0.613000000     2.268000000
C     0.309000000     0.853000000     0.915000000
H     0.659000000     1.686000000     1.519000000
C    -0.261000000     1.146000000    -0.329000000
C    -0.286000000     2.620000000    -0.847000000
H     0.228000000     2.576000000    -1.809000000
H    -1.306000000     3.007000000    -0.907000000
H     0.161000000     3.238000000    -0.066000000
C    -0.660000000     0.135000000    -1.183000000
H    -1.101000000     0.249000000    -2.170000000
C    -0.468000000    -1.156000000    -0.715000000
H    -0.677000000    -1.966000000    -1.408000000
C     0.170000000    -1.447000000     0.461000000
C     0.500000000    -2.909000000     0.836000000
O     0.212000000    -3.834000000     0.160000000
O     0.887000000    -3.157000000     1.937000000
