17
-92.37888
C     0.540000000    -0.499000000     1.256000000
H     0.923000000    -0.707000000     2.252000000
C    -0.287000000     0.583000000     1.092000000
H    -0.433000000     1.262000000     1.928000000
C    -0.731000000     1.000000000    -0.207000000
C    -1.520000000     2.304000000    -0.371000000
H    -1.126000000     2.978000000    -1.135000000
H    -2.538000000     1.930000000    -0.497000000
H    -1.444000000     2.841000000     0.576000000
C    -0.453000000     0.157000000    -1.272000000
H    -0.737000000     0.512000000    -2.259000000
C     0.344000000    -0.960000000    -1.044000000
H     0.542000000    -1.631000000    -1.876000000
C     0.846000000    -1.326000000     0.238000000
C     1.712000000    -2.540000000     0.418000000
O     2.153000000    -3.092000000    -0.584000000
O     2.215000000    -2.817000000     1.487000000
