17
-93.52975
C     0.911000000    -0.623000000     1.025000000
H     1.475000000    -0.993000000     1.877000000
C     0.409000000     0.691000000     1.105000000
H     0.635000000     1.362000000     1.930000000
C    -0.486000000     1.125000000     0.109000000
C    -1.154000000     2.466000000     0.133000000
H    -0.810000000     3.090000000    -0.695000000
H    -2.235000000     2.323000000     0.096000000
H    -1.006000000     2.937000000     1.107000000
C    -0.688000000     0.391000000    -1.039000000
H    -1.247000000     0.798000000    -1.878000000
C    -0.123000000    -0.909000000    -1.172000000
H    -0.069000000    -1.413000000    -2.134000000
C     0.678000000    -1.435000000    -0.088000000
C     1.165000000    -2.854000000    -0.160000000
O     0.769000000    -3.643000000    -0.995000000
O     1.777000000    -3.316000000     0.783000000
