17
-101.18148
C     1.032000000    -0.540000000     0.907000000
H     1.692000000    -0.791000000     1.734000000
C     0.244000000     0.622000000     1.072000000
H     0.371000000     1.202000000     1.983000000
C    -0.633000000     1.043000000     0.116000000
C    -1.431000000     2.261000000     0.535000000
H    -1.693000000     2.840000000    -0.353000000
H    -2.374000000     1.959000000     0.994000000
H    -0.831000000     2.882000000     1.204000000
C    -0.782000000     0.331000000    -1.048000000
H    -1.455000000     0.636000000    -1.846000000
C     0.001000000    -0.815000000    -1.254000000
H    -0.108000000    -1.394000000    -2.167000000
C     0.914000000    -1.233000000    -0.280000000
C     1.507000000    -2.652000000    -0.489000000
O     1.273000000    -3.311000000    -1.503000000
O     2.281000000    -3.048000000     0.388000000
