17
-86.55422
C     0.894000000    -0.698000000    -1.028000000
H     1.664000000    -1.005000000    -1.730000000
C     0.209000000     0.488000000    -1.160000000
H     0.322000000     1.005000000    -2.109000000
C    -0.616000000     1.045000000    -0.237000000
C    -1.455000000     2.234000000    -0.520000000
H    -2.151000000     2.089000000    -1.349000000
H    -2.109000000     2.413000000     0.336000000
H    -0.821000000     3.123000000    -0.490000000
C    -0.704000000     0.448000000     0.986000000
H    -1.451000000     0.814000000     1.685000000
C     0.006000000    -0.736000000     1.251000000
H    -0.110000000    -1.200000000     2.227000000
C     0.821000000    -1.303000000     0.188000000
C     1.555000000    -2.597000000     0.530000000
O     1.657000000    -2.998000000     1.689000000
O     2.282000000    -3.127000000    -0.272000000
