17
-98.32199
C     0.711000000    -0.794000000    -0.976000000
H     1.225000000    -1.298000000    -1.791000000
C     0.185000000     0.490000000    -1.167000000
H     0.307000000     1.016000000    -2.111000000
C    -0.510000000     1.137000000    -0.157000000
C    -0.961000000     2.526000000    -0.479000000
H    -0.509000000     2.861000000    -1.415000000
H    -2.048000000     2.452000000    -0.562000000
H    -0.635000000     3.183000000     0.330000000
C    -0.693000000     0.457000000     1.059000000
H    -1.155000000     1.062000000     1.835000000
C    -0.170000000    -0.799000000     1.284000000
H    -0.373000000    -1.416000000     2.155000000
C     0.519000000    -1.439000000     0.236000000
C     1.243000000    -2.754000000     0.496000000
O     1.533000000    -3.091000000     1.658000000
O     1.339000000    -3.585000000    -0.393000000
