17
-93.02828
C    -0.372000000     1.393000000     0.472000000
H    -0.681000000     2.428000000     0.594000000
C     0.518000000     1.095000000    -0.585000000
H     0.887000000     1.963000000    -1.125000000
C     0.774000000    -0.225000000    -0.913000000
C     1.590000000    -0.550000000    -2.113000000
H     0.892000000    -0.861000000    -2.893000000
H     2.088000000     0.378000000    -2.403000000
H     2.359000000    -1.307000000    -1.945000000
C     0.210000000    -1.287000000    -0.178000000
H     0.396000000    -2.294000000    -0.543000000
C    -0.560000000    -1.059000000     0.886000000
H    -1.026000000    -1.868000000     1.442000000
C    -0.950000000     0.267000000     1.160000000
C    -1.831000000     0.584000000     2.353000000
O    -2.350000000    -0.348000000     3.010000000
O    -1.945000000     1.692000000     2.789000000
