17
-95.69718
C     0.364000000    -1.386000000     0.470000000
H     0.383000000    -2.380000000     0.911000000
C    -0.811000000    -0.963000000    -0.192000000
H    -1.607000000    -1.675000000    -0.396000000
C    -1.063000000     0.371000000    -0.518000000
C    -2.363000000     0.814000000    -1.083000000
H    -2.859000000    -0.062000000    -1.506000000
H    -3.068000000     1.055000000    -0.285000000
H    -2.341000000     1.622000000    -1.816000000
C    -0.009000000     1.243000000    -0.390000000
H    -0.143000000     2.260000000    -0.749000000
C     1.210000000     0.843000000     0.138000000
H     2.067000000     1.495000000    -0.013000000
C     1.414000000    -0.446000000     0.662000000
C     2.609000000    -0.790000000     1.446000000
O     3.593000000    -0.131000000     1.252000000
O     2.618000000    -1.867000000     2.072000000
