17
-94.87811
C     0.266000000     0.014000000     1.462000000
H     0.445000000    -0.148000000     2.522000000
C    -0.340000000    -1.084000000     0.741000000
H    -0.663000000    -1.948000000     1.317000000
C    -0.537000000    -0.928000000    -0.602000000
C    -1.164000000    -2.031000000    -1.519000000
H    -0.371000000    -2.488000000    -2.114000000
H    -1.605000000    -2.859000000    -0.960000000
H    -1.855000000    -1.533000000    -2.202000000
C    -0.220000000     0.272000000    -1.229000000
H    -0.406000000     0.383000000    -2.294000000
C     0.391000000     1.313000000    -0.560000000
H     0.783000000     2.156000000    -1.124000000
C     0.667000000     1.187000000     0.836000000
C     1.342000000     2.283000000     1.650000000
O     2.116000000     3.091000000     1.209000000
O     1.151000000     2.315000000     2.860000000
