17
-96.98309
C    -0.248000000     1.446000000     0.340000000
H    -0.378000000     2.473000000     0.671000000
C     0.796000000     1.003000000    -0.442000000
H     1.632000000     1.560000000    -0.856000000
C     0.891000000    -0.369000000    -0.706000000
C     2.072000000    -0.947000000    -1.555000000
H     2.590000000    -1.612000000    -0.862000000
H     1.670000000    -1.493000000    -2.412000000
H     2.687000000    -0.153000000    -1.984000000
C    -0.049000000    -1.251000000    -0.272000000
H     0.153000000    -2.263000000    -0.614000000
C    -1.108000000    -0.863000000     0.561000000
H    -1.905000000    -1.509000000     0.921000000
C    -1.099000000     0.498000000     0.951000000
C    -2.278000000     1.017000000     1.831000000
O    -2.999000000     0.217000000     2.438000000
O    -2.420000000     2.246000000     1.990000000
