17
-96.52687
C     1.032000000     0.636000000     0.751000000
H     1.733000000     1.026000000     1.485000000
C     0.467000000    -0.592000000     0.978000000
H     0.849000000    -1.209000000     1.787000000
C    -0.505000000    -1.114000000     0.153000000
C    -1.076000000    -2.492000000     0.438000000
H    -1.685000000    -2.945000000    -0.347000000
H    -0.250000000    -3.155000000     0.702000000
H    -1.579000000    -2.497000000     1.407000000
C    -0.990000000    -0.295000000    -0.923000000
H    -1.715000000    -0.777000000    -1.573000000
C    -0.431000000     0.986000000    -1.111000000
H    -0.690000000     1.512000000    -2.026000000
C     0.593000000     1.450000000    -0.266000000
C     1.237000000     2.823000000    -0.433000000
O     0.785000000     3.553000000    -1.253000000
O     2.217000000     3.082000000     0.233000000
