17
-87.73432
C     1.351000000     0.275000000     0.601000000
H     2.337000000     0.283000000     1.060000000
C     0.513000000    -0.797000000     0.918000000
H     0.690000000    -1.561000000     1.670000000
C    -0.736000000    -0.959000000     0.264000000
C    -1.659000000    -2.119000000     0.607000000
H    -1.082000000    -2.824000000     1.208000000
H    -2.564000000    -1.798000000     1.128000000
H    -1.934000000    -2.533000000    -0.366000000
C    -1.146000000    -0.030000000    -0.648000000
H    -2.134000000    -0.120000000    -1.093000000
C    -0.303000000     1.059000000    -0.918000000
H    -0.575000000     1.689000000    -1.760000000
C     0.946000000     1.237000000    -0.336000000
C     1.898000000     2.355000000    -0.734000000
O     1.383000000     3.327000000    -1.252000000
O     3.010000000     2.514000000    -0.356000000
