17
-91.82305
C    -0.415000000     1.423000000    -0.075000000
H    -0.665000000     2.478000000    -0.148000000
C     0.687000000     0.914000000    -0.739000000
H     1.383000000     1.622000000    -1.181000000
C     0.958000000    -0.433000000    -0.617000000
C     2.223000000    -1.025000000    -1.176000000
H     2.196000000    -2.117000000    -1.169000000
H     2.290000000    -0.632000000    -2.193000000
H     3.093000000    -0.722000000    -0.590000000
C     0.110000000    -1.300000000     0.055000000
H     0.368000000    -2.348000000     0.178000000
C    -1.009000000    -0.790000000     0.711000000
H    -1.697000000    -1.391000000     1.300000000
C    -1.316000000     0.562000000     0.636000000
C    -2.549000000     1.085000000     1.350000000
O    -3.069000000     0.353000000     2.126000000
O    -2.591000000     2.319000000     1.529000000
