17
-95.54584
C     0.503000000     0.276000000     1.368000000
H     0.776000000     0.265000000     2.420000000
C    -0.277000000    -0.784000000     1.024000000
H    -0.606000000    -1.436000000     1.829000000
C    -0.635000000    -0.948000000    -0.325000000
C    -1.604000000    -2.062000000    -0.660000000
H    -1.647000000    -2.242000000    -1.736000000
H    -1.212000000    -2.987000000    -0.230000000
H    -2.613000000    -1.812000000    -0.325000000
C    -0.260000000    -0.067000000    -1.280000000
H    -0.570000000    -0.300000000    -2.296000000
C     0.549000000     0.978000000    -0.943000000
H     0.913000000     1.628000000    -1.734000000
C     0.851000000     1.242000000     0.390000000
C     1.728000000     2.425000000     0.728000000
O     1.875000000     3.288000000    -0.092000000
O     2.235000000     2.528000000     1.855000000
