17
-91.25624
C     1.300000000     0.239000000    -0.373000000
H     2.342000000     0.332000000    -0.667000000
C     0.524000000    -0.701000000    -0.982000000
H     0.800000000    -1.446000000    -1.723000000
C    -0.804000000    -0.838000000    -0.504000000
C    -1.621000000    -1.878000000    -1.019000000
H    -0.985000000    -2.756000000    -1.150000000
H    -2.255000000    -2.262000000    -0.217000000
H    -2.189000000    -1.627000000    -1.917000000
C    -1.270000000     0.068000000     0.473000000
H    -2.261000000     0.047000000     0.920000000
C    -0.423000000     1.034000000     1.043000000
H    -0.714000000     1.683000000     1.865000000
C     0.871000000     1.119000000     0.608000000
C     1.956000000     2.050000000     1.141000000
O     1.580000000     3.120000000     1.524000000
O     3.150000000     1.813000000     0.977000000
