17
-97.91362
C     1.310000000     0.181000000    -0.812000000
H     2.210000000     0.306000000    -1.409000000
C     0.443000000    -0.929000000    -0.929000000
H     0.621000000    -1.694000000    -1.681000000
C    -0.688000000    -1.009000000    -0.078000000
C    -1.712000000    -2.157000000    -0.223000000
H    -2.058000000    -2.183000000    -1.258000000
H    -1.170000000    -3.081000000    -0.012000000
H    -2.464000000    -2.111000000     0.567000000
C    -0.976000000     0.012000000     0.814000000
H    -1.843000000    -0.045000000     1.467000000
C    -0.134000000     1.086000000     0.911000000
H    -0.378000000     1.910000000     1.577000000
C     1.000000000     1.227000000     0.118000000
C     1.752000000     2.488000000     0.246000000
O     1.357000000     3.286000000     1.116000000
O     2.723000000     2.708000000    -0.407000000
