17
-92.50384
C     1.368000000     0.226000000    -0.645000000
H     2.415000000     0.357000000    -0.905000000
C     0.672000000    -0.990000000    -0.664000000
H     1.149000000    -1.902000000    -1.012000000
C    -0.614000000    -1.016000000    -0.134000000
C    -1.478000000    -2.202000000    -0.231000000
H    -0.916000000    -3.100000000    -0.497000000
H    -1.933000000    -2.470000000     0.725000000
H    -2.291000000    -2.256000000    -0.959000000
C    -1.139000000     0.017000000     0.576000000
H    -2.130000000    -0.088000000     1.010000000
C    -0.453000000     1.182000000     0.742000000
H    -0.887000000     2.076000000     1.182000000
C     0.775000000     1.319000000     0.065000000
C     1.582000000     2.621000000     0.137000000
O     1.066000000     3.638000000     0.572000000
O     2.807000000     2.583000000     0.037000000
