17
-95.37295
C     1.450000000    -0.125000000     0.246000000
H     2.509000000    -0.274000000     0.436000000
C     0.632000000    -1.199000000     0.092000000
H     1.063000000    -2.197000000     0.063000000
C    -0.751000000    -0.944000000    -0.152000000
C    -1.807000000    -2.070000000    -0.311000000
H    -2.765000000    -1.808000000    -0.767000000
H    -1.400000000    -2.852000000    -0.955000000
H    -2.027000000    -2.538000000     0.651000000
C    -1.240000000     0.373000000    -0.240000000
H    -2.264000000     0.542000000    -0.565000000
C    -0.328000000     1.422000000    -0.019000000
H    -0.728000000     2.432000000    -0.015000000
C     1.061000000     1.226000000     0.221000000
C     1.974000000     2.363000000     0.391000000
O     1.548000000     3.280000000     1.044000000
O     3.078000000     2.374000000    -0.114000000
