17
-95.82942
C    -0.438000000     1.063000000     0.880000000
H    -0.751000000     1.925000000     1.465000000
C     0.680000000     1.068000000     0.118000000
H     1.350000000     1.914000000     0.250000000
C     1.134000000    -0.026000000    -0.593000000
C     2.312000000     0.017000000    -1.515000000
H     3.164000000    -0.522000000    -1.096000000
H     2.091000000    -0.303000000    -2.536000000
H     2.623000000     1.064000000    -1.499000000
C     0.249000000    -1.086000000    -0.680000000
H     0.519000000    -1.907000000    -1.340000000
C    -0.965000000    -1.130000000     0.043000000
H    -1.685000000    -1.944000000     0.071000000
C    -1.363000000     0.000000000     0.832000000
C    -2.692000000     0.016000000     1.609000000
O    -3.383000000    -1.038000000     1.563000000
O    -2.850000000     0.883000000     2.434000000
