17
-89.05019
C     1.436000000    -0.018000000    -0.543000000
H     2.401000000    -0.089000000    -1.039000000
C     0.431000000    -1.013000000    -0.673000000
H     0.780000000    -1.869000000    -1.247000000
C    -0.880000000    -0.888000000    -0.145000000
C    -2.015000000    -1.823000000    -0.479000000
H    -2.726000000    -1.891000000     0.347000000
H    -2.610000000    -1.532000000    -1.348000000
H    -1.738000000    -2.851000000    -0.720000000
C    -1.112000000     0.217000000     0.634000000
H    -2.005000000     0.229000000     1.254000000
C    -0.144000000     1.190000000     0.858000000
H    -0.376000000     2.010000000     1.532000000
C     1.154000000     1.101000000     0.211000000
C     2.209000000     2.091000000     0.438000000
O     2.127000000     2.966000000     1.292000000
O     3.076000000     2.171000000    -0.368000000
