17
-85.61812
C     1.460000000    -0.321000000     0.271000000
H     2.523000000    -0.548000000     0.296000000
C     0.514000000    -1.074000000    -0.409000000
H     0.834000000    -1.971000000    -0.933000000
C    -0.804000000    -0.788000000    -0.545000000
C    -1.721000000    -1.687000000    -1.383000000
H    -1.756000000    -1.476000000    -2.454000000
H    -1.366000000    -2.715000000    -1.484000000
H    -2.644000000    -1.748000000    -0.802000000
C    -1.264000000     0.444000000    -0.033000000
H    -2.310000000     0.732000000    -0.097000000
C    -0.346000000     1.340000000     0.631000000
H    -0.730000000     2.286000000     1.004000000
C     0.998000000     0.953000000     0.812000000
C     1.953000000     1.945000000     1.465000000
O     1.548000000     2.949000000     1.994000000
O     3.109000000     1.679000000     1.659000000
