17
-93.84826
C     1.389000000     0.468000000    -0.078000000
H     2.460000000     0.628000000    -0.175000000
C     0.857000000    -0.729000000    -0.505000000
H     1.591000000    -1.422000000    -0.907000000
C    -0.490000000    -1.038000000    -0.394000000
C    -0.818000000    -2.532000000    -0.764000000
H    -0.718000000    -2.614000000    -1.848000000
H    -0.101000000    -3.224000000    -0.318000000
H    -1.850000000    -2.842000000    -0.589000000
C    -1.335000000    -0.109000000     0.161000000
H    -2.372000000    -0.420000000     0.264000000
C    -0.846000000     1.136000000     0.504000000
H    -1.482000000     1.905000000     0.934000000
C     0.484000000     1.398000000     0.481000000
C     0.957000000     2.730000000     0.973000000
O     0.139000000     3.618000000     1.307000000
O     2.133000000     3.042000000     0.947000000
