17
-95.31648
C     0.213000000     1.378000000    -0.559000000
H     0.345000000     2.293000000    -1.131000000
C     0.419000000     0.135000000    -1.223000000
H     0.748000000     0.030000000    -2.254000000
C     0.159000000    -1.079000000    -0.591000000
C     0.178000000    -2.391000000    -1.372000000
H     1.220000000    -2.657000000    -1.559000000
H    -0.327000000    -3.066000000    -0.678000000
H    -0.415000000    -2.474000000    -2.286000000
C    -0.109000000    -1.052000000     0.764000000
H    -0.403000000    -1.962000000     1.281000000
C    -0.158000000     0.160000000     1.471000000
H    -0.415000000     0.157000000     2.527000000
C    -0.060000000     1.387000000     0.775000000
C    -0.420000000     2.687000000     1.412000000
O    -0.888000000     2.702000000     2.534000000
O    -0.088000000     3.757000000     0.891000000
