17
-95.65147
C     1.201000000     0.682000000     0.437000000
H     2.190000000     0.966000000     0.786000000
C     1.173000000    -0.377000000    -0.397000000
H     2.101000000    -0.834000000    -0.729000000
C    -0.033000000    -0.893000000    -0.822000000
C    -0.100000000    -2.097000000    -1.721000000
H    -0.445000000    -2.937000000    -1.113000000
H    -0.898000000    -1.996000000    -2.459000000
H     0.836000000    -2.396000000    -2.197000000
C    -1.202000000    -0.322000000    -0.333000000
H    -2.106000000    -0.838000000    -0.647000000
C    -1.190000000     0.699000000     0.584000000
H    -2.076000000     1.009000000     1.131000000
C     0.031000000     1.325000000     0.876000000
C     0.164000000     2.356000000     1.943000000
O    -0.875000000     2.930000000     2.237000000
O     1.237000000     2.717000000     2.426000000
