17
-98.57991
C    -0.508000000     0.650000000     1.245000000
H    -0.941000000     1.188000000     2.085000000
C     0.448000000     1.246000000     0.381000000
H     0.745000000     2.283000000     0.511000000
C     0.837000000     0.495000000    -0.739000000
C     1.727000000     1.098000000    -1.897000000
H     1.194000000     1.900000000    -2.412000000
H     2.602000000     1.483000000    -1.370000000
H     2.151000000     0.365000000    -2.586000000
C     0.370000000    -0.763000000    -0.940000000
H     0.716000000    -1.348000000    -1.788000000
C    -0.587000000    -1.358000000    -0.073000000
H    -0.940000000    -2.350000000    -0.344000000
C    -1.022000000    -0.645000000     1.038000000
C    -2.025000000    -1.247000000     1.993000000
O    -2.644000000    -2.302000000     1.788000000
O    -2.120000000    -0.694000000     3.115000000
