17
-98.08932
C     0.661000000     0.882000000     0.905000000
H     1.298000000     1.435000000     1.589000000
C     1.331000000     0.157000000    -0.083000000
H     2.412000000     0.114000000    -0.190000000
C     0.548000000    -0.538000000    -0.953000000
C     1.170000000    -1.331000000    -2.061000000
H     1.567000000    -0.691000000    -2.852000000
H     1.966000000    -1.958000000    -1.653000000
H     0.482000000    -2.058000000    -2.497000000
C    -0.847000000    -0.625000000    -0.749000000
H    -1.459000000    -1.262000000    -1.384000000
C    -1.480000000     0.019000000     0.305000000
H    -2.530000000    -0.053000000     0.575000000
C    -0.714000000     0.869000000     1.097000000
C    -1.284000000     1.506000000     2.324000000
O    -2.358000000     1.085000000     2.768000000
O    -0.763000000     2.455000000     2.853000000
