17
-93.83448
C    -0.442000000     0.733000000     1.194000000
H    -0.857000000     1.453000000     1.894000000
C     0.363000000     1.229000000     0.204000000
H     0.704000000     2.260000000     0.157000000
C     0.748000000     0.423000000    -0.855000000
C     1.718000000     0.971000000    -1.865000000
H     2.778000000     0.910000000    -1.610000000
H     1.550000000     0.409000000    -2.786000000
H     1.480000000     2.037000000    -1.886000000
C     0.336000000    -0.887000000    -0.916000000
H     0.659000000    -1.494000000    -1.757000000
C    -0.554000000    -1.360000000     0.010000000
H    -0.854000000    -2.405000000    -0.001000000
C    -0.978000000    -0.563000000     1.106000000
C    -1.980000000    -1.083000000     2.085000000
O    -2.269000000    -2.233000000     1.988000000
O    -2.397000000    -0.408000000     3.041000000
