17
-93.41419
C     0.338000000     0.444000000     1.315000000
H     0.847000000     0.876000000     2.173000000
C     0.113000000     1.269000000     0.173000000
H     0.381000000     2.322000000     0.224000000
C    -0.256000000     0.682000000    -0.999000000
C    -0.314000000     1.587000000    -2.163000000
H    -0.582000000     2.605000000    -1.870000000
H     0.654000000     1.489000000    -2.657000000
H    -1.092000000     1.354000000    -2.893000000
C    -0.480000000    -0.661000000    -1.049000000
H    -0.728000000    -1.138000000    -1.994000000
C    -0.349000000    -1.458000000     0.110000000
H    -0.470000000    -2.534000000     0.015000000
C     0.132000000    -0.898000000     1.258000000
C     0.449000000    -1.731000000     2.491000000
O    -0.114000000    -2.762000000     2.723000000
O     1.469000000    -1.445000000     3.143000000
