17
-84.46725
C     0.168000000     0.271000000     1.417000000
H     0.418000000     0.547000000     2.438000000
C     0.295000000     1.190000000     0.360000000
H     0.825000000     2.102000000     0.620000000
C     0.119000000     0.798000000    -0.931000000
C     0.523000000     1.748000000    -2.093000000
H    -0.384000000     1.854000000    -2.691000000
H     0.805000000     2.751000000    -1.765000000
H     1.272000000     1.303000000    -2.751000000
C    -0.306000000    -0.502000000    -1.214000000
H    -0.338000000    -0.952000000    -2.203000000
C    -0.497000000    -1.375000000    -0.118000000
H    -0.837000000    -2.388000000    -0.317000000
C    -0.223000000    -1.008000000     1.202000000
C    -0.410000000    -1.889000000     2.400000000
O    -0.690000000    -3.052000000     2.206000000
O    -0.738000000    -1.406000000     3.435000000
