17
-93.82602
C     0.228000000    -0.692000000     1.264000000
H     0.318000000    -1.012000000     2.299000000
C     1.087000000     0.182000000     0.684000000
H     1.980000000     0.415000000     1.258000000
C     0.763000000     0.878000000    -0.481000000
C     1.715000000     1.891000000    -1.087000000
H     1.370000000     2.030000000    -2.114000000
H     1.720000000     2.867000000    -0.597000000
H     2.716000000     1.463000000    -1.014000000
C    -0.477000000     0.589000000    -1.069000000
H    -0.860000000     1.170000000    -1.905000000
C    -1.253000000    -0.469000000    -0.610000000
H    -2.138000000    -0.740000000    -1.180000000
C    -0.935000000    -1.101000000     0.602000000
C    -1.837000000    -2.209000000     1.128000000
O    -2.957000000    -2.288000000     0.780000000
O    -1.433000000    -2.966000000     2.035000000
