17
-98.52453
C    -0.180000000     1.438000000    -0.226000000
H    -0.249000000     2.494000000    -0.475000000
C     0.144000000     0.475000000    -1.195000000
H     0.308000000     0.823000000    -2.211000000
C     0.144000000    -0.884000000    -0.859000000
C     0.468000000    -1.871000000    -1.970000000
H    -0.404000000    -2.087000000    -2.590000000
H     1.178000000    -1.503000000    -2.713000000
H     0.831000000    -2.790000000    -1.505000000
C     0.026000000    -1.237000000     0.476000000
H     0.267000000    -2.243000000     0.808000000
C    -0.134000000    -0.323000000     1.491000000
H    -0.121000000    -0.544000000     2.555000000
C    -0.280000000     1.055000000     1.110000000
C    -0.479000000     2.166000000     2.169000000
O    -0.431000000     1.845000000     3.384000000
O    -1.089000000     3.191000000     1.755000000
