17
-97.27731
C    -0.290000000     1.453000000    -0.339000000
H    -0.496000000     2.459000000    -0.697000000
C     0.162000000     0.442000000    -1.211000000
H     0.395000000     0.765000000    -2.222000000
C     0.300000000    -0.851000000    -0.815000000
C     0.836000000    -1.982000000    -1.713000000
H     0.080000000    -2.346000000    -2.411000000
H     1.593000000    -1.562000000    -2.379000000
H     1.153000000    -2.883000000    -1.183000000
C     0.083000000    -1.181000000     0.511000000
H     0.071000000    -2.237000000     0.766000000
C    -0.271000000    -0.171000000     1.401000000
H    -0.485000000    -0.455000000     2.429000000
C    -0.465000000     1.157000000     1.000000000
C    -0.822000000     2.159000000     2.004000000
O    -0.899000000     1.902000000     3.212000000
O    -0.944000000     3.327000000     1.648000000
