17
-94.49787
C    -1.138000000     0.319000000    -0.904000000
H    -1.880000000     0.457000000    -1.687000000
C    -0.243000000    -0.757000000    -1.042000000
H    -0.328000000    -1.446000000    -1.879000000
C     0.780000000    -0.946000000    -0.086000000
C     1.843000000    -1.942000000    -0.378000000
H     1.414000000    -2.669000000    -1.071000000
H     2.741000000    -1.563000000    -0.871000000
H     2.120000000    -2.546000000     0.488000000
C     0.928000000    -0.054000000     0.963000000
H     1.721000000    -0.103000000     1.704000000
C     0.015000000     0.916000000     1.150000000
H     0.071000000     1.644000000     1.955000000
C    -1.065000000     1.159000000     0.197000000
C    -2.068000000     2.224000000     0.447000000
O    -1.959000000     2.930000000     1.390000000
O    -2.950000000     2.378000000    -0.383000000
