17
-93.32092
C    -1.241000000     0.836000000    -0.015000000
H    -2.143000000     1.433000000    -0.123000000
C    -1.046000000    -0.416000000    -0.666000000
H    -1.876000000    -0.777000000    -1.268000000
C     0.150000000    -1.127000000    -0.584000000
C     0.193000000    -2.511000000    -1.153000000
H     1.253000000    -2.767000000    -1.216000000
H    -0.461000000    -3.165000000    -0.573000000
H    -0.216000000    -2.529000000    -2.165000000
C     1.174000000    -0.495000000     0.074000000
H     2.118000000    -1.030000000     0.013000000
C     1.039000000     0.729000000     0.743000000
H     1.823000000     0.937000000     1.467000000
C    -0.180000000     1.451000000     0.694000000
C    -0.199000000     2.780000000     1.431000000
O     0.801000000     3.183000000     1.966000000
O    -1.197000000     3.474000000     1.382000000
