17
-100.29451
C    -1.281000000     0.541000000    -0.477000000
H    -2.159000000     0.910000000    -1.001000000
C    -0.729000000    -0.700000000    -0.831000000
H    -1.224000000    -1.299000000    -1.591000000
C     0.471000000    -1.125000000    -0.238000000
C     1.041000000    -2.394000000    -0.699000000
H     1.106000000    -2.363000000    -1.789000000
H     1.981000000    -2.647000000    -0.203000000
H     0.396000000    -3.232000000    -0.426000000
C     1.097000000    -0.340000000     0.691000000
H     2.012000000    -0.677000000     1.171000000
C     0.544000000     0.910000000     1.049000000
H     1.159000000     1.574000000     1.651000000
C    -0.667000000     1.329000000     0.491000000
C    -1.127000000     2.778000000     0.680000000
O    -0.414000000     3.517000000     1.315000000
O    -2.198000000     3.220000000     0.213000000
