17
-94.28585
C    -0.641000000     0.847000000    -1.045000000
H    -1.219000000     1.370000000    -1.802000000
C    -0.356000000    -0.540000000    -1.171000000
H    -0.659000000    -1.023000000    -2.096000000
C     0.233000000    -1.227000000    -0.152000000
C     0.533000000    -2.744000000    -0.086000000
H     1.596000000    -2.816000000     0.151000000
H    -0.154000000    -3.226000000     0.613000000
H     0.260000000    -3.195000000    -1.042000000
C     0.583000000    -0.520000000     1.017000000
H     0.961000000    -1.141000000     1.825000000
C     0.383000000     0.870000000     1.108000000
H     0.700000000     1.463000000     1.962000000
C    -0.319000000     1.549000000     0.099000000
C    -0.551000000     3.043000000     0.192000000
O    -0.472000000     3.620000000     1.232000000
O    -0.870000000     3.664000000    -0.799000000
