17
-91.86269
C    -0.823000000     0.457000000    -1.045000000
H    -1.468000000     0.701000000    -1.886000000
C    -1.299000000    -0.243000000     0.001000000
H    -2.368000000    -0.433000000     0.052000000
C    -0.416000000    -0.611000000     1.011000000
C    -0.966000000    -1.362000000     2.189000000
H    -1.808000000    -1.990000000     1.890000000
H    -0.153000000    -1.856000000     2.724000000
H    -1.424000000    -0.629000000     2.857000000
C     0.988000000    -0.366000000     0.837000000
H     1.683000000    -0.689000000     1.608000000
C     1.430000000     0.371000000    -0.260000000
H     2.489000000     0.484000000    -0.474000000
C     0.525000000     0.847000000    -1.157000000
C     1.023000000     1.596000000    -2.402000000
O     2.243000000     1.713000000    -2.609000000
O     0.350000000     2.016000000    -3.336000000
