17
-100.80854
C    -0.722000000     1.216000000    -0.341000000
H    -1.331000000     2.065000000    -0.642000000
C     0.122000000     0.472000000    -1.158000000
H     0.324000000     0.750000000    -2.190000000
C     0.717000000    -0.692000000    -0.727000000
C     1.561000000    -1.434000000    -1.757000000
H     2.311000000    -0.753000000    -2.166000000
H     1.997000000    -2.329000000    -1.309000000
H     0.833000000    -1.599000000    -2.554000000
C     0.598000000    -1.063000000     0.620000000
H     1.108000000    -1.946000000     0.998000000
C    -0.226000000    -0.277000000     1.434000000
H    -0.251000000    -0.606000000     2.470000000
C    -0.874000000     0.849000000     0.972000000
C    -1.798000000     1.602000000     1.896000000
O    -2.054000000     1.114000000     2.988000000
O    -2.312000000     2.637000000     1.458000000
