17
-91.72477
C    -0.614000000     1.185000000    -0.596000000
H    -0.849000000     2.131000000    -1.077000000
C     0.342000000     0.364000000    -1.198000000
H     0.778000000     0.807000000    -2.090000000
C     0.728000000    -0.798000000    -0.593000000
C     1.811000000    -1.511000000    -1.300000000
H     1.920000000    -2.533000000    -0.932000000
H     1.774000000    -1.422000000    -2.388000000
H     2.812000000    -1.124000000    -1.098000000
C     0.244000000    -1.132000000     0.672000000
H     0.654000000    -1.946000000     1.265000000
C    -0.695000000    -0.347000000     1.282000000
H    -0.950000000    -0.648000000     2.295000000
C    -1.085000000     0.856000000     0.708000000
C    -2.002000000     1.781000000     1.476000000
O    -2.390000000     1.564000000     2.626000000
O    -2.474000000     2.777000000     0.948000000
