17
-89.84821
C    -0.462000000     1.318000000    -0.418000000
H    -0.725000000     2.241000000    -0.929000000
C     0.257000000     0.384000000    -1.175000000
H     0.497000000     0.811000000    -2.145000000
C     0.562000000    -0.866000000    -0.712000000
C     1.321000000    -1.882000000    -1.591000000
H     2.405000000    -1.894000000    -1.457000000
H     0.929000000    -2.875000000    -1.363000000
H     1.047000000    -1.604000000    -2.611000000
C     0.196000000    -1.161000000     0.590000000
H     0.384000000    -2.131000000     1.042000000
C    -0.433000000    -0.186000000     1.403000000
H    -0.550000000    -0.503000000     2.436000000
C    -0.792000000     1.071000000     0.928000000
C    -1.430000000     2.139000000     1.758000000
O    -1.428000000     1.985000000     2.966000000
O    -1.772000000     3.145000000     1.282000000
