17
-91.16896
C    -0.251000000     1.438000000    -0.194000000
H    -0.377000000     2.468000000    -0.519000000
C    -0.049000000     0.468000000    -1.172000000
H    -0.063000000     0.694000000    -2.235000000
C     0.245000000    -0.881000000    -0.824000000
C     0.428000000    -1.776000000    -2.053000000
H    -0.539000000    -1.877000000    -2.552000000
H     1.066000000    -1.385000000    -2.848000000
H     0.775000000    -2.727000000    -1.644000000
C     0.231000000    -1.268000000     0.471000000
H     0.383000000    -2.324000000     0.682000000
C    -0.046000000    -0.284000000     1.445000000
H    -0.064000000    -0.568000000     2.494000000
C    -0.242000000     1.082000000     1.160000000
C    -0.479000000     2.066000000     2.293000000
O    -0.323000000     1.658000000     3.403000000
O    -0.690000000     3.212000000     2.094000000
