17
-90.87395
C     0.568000000     1.344000000    -0.387000000
H     1.123000000     2.199000000    -0.765000000
C     0.288000000     0.270000000    -1.230000000
H     0.602000000     0.305000000    -2.270000000
C    -0.251000000    -0.935000000    -0.736000000
C    -0.503000000    -2.035000000    -1.721000000
H     0.330000000    -2.296000000    -2.377000000
H    -0.897000000    -2.933000000    -1.242000000
H    -1.257000000    -1.651000000    -2.412000000
C    -0.592000000    -1.043000000     0.619000000
H    -1.063000000    -1.964000000     0.954000000
C    -0.334000000     0.009000000     1.424000000
H    -0.603000000    -0.114000000     2.470000000
C     0.292000000     1.181000000     1.002000000
C     0.653000000     2.218000000     1.979000000
O     0.254000000     2.288000000     3.081000000
O     1.385000000     3.156000000     1.606000000
