17
-96.21462
C     0.849000000     1.225000000     0.170000000
H     1.411000000     2.156000000     0.172000000
C     0.644000000     0.522000000    -0.988000000
H     1.011000000     0.951000000    -1.917000000
C    -0.123000000    -0.673000000    -1.051000000
C    -0.526000000    -1.332000000    -2.381000000
H    -1.596000000    -1.547000000    -2.340000000
H    -0.331000000    -0.593000000    -3.161000000
H     0.147000000    -2.154000000    -2.633000000
C    -0.751000000    -1.117000000     0.146000000
H    -1.386000000    -1.999000000     0.145000000
C    -0.487000000    -0.459000000     1.342000000
H    -0.870000000    -0.837000000     2.286000000
C     0.307000000     0.735000000     1.355000000
C     0.441000000     1.543000000     2.609000000
O    -0.070000000     1.160000000     3.616000000
O     1.338000000     2.417000000     2.625000000
