17
-94.72592
C     0.447000000     1.223000000     0.769000000
H     0.715000000     2.211000000     1.133000000
C     0.631000000     0.962000000    -0.586000000
H     1.105000000     1.705000000    -1.222000000
C     0.226000000    -0.217000000    -1.166000000
C     0.448000000    -0.488000000    -2.650000000
H     1.153000000    -1.286000000    -2.890000000
H    -0.541000000    -0.821000000    -2.970000000
H     0.647000000     0.387000000    -3.273000000
C    -0.404000000    -1.160000000    -0.391000000
H    -0.754000000    -2.040000000    -0.923000000
C    -0.589000000    -0.907000000     0.984000000
H    -1.085000000    -1.696000000     1.544000000
C    -0.244000000     0.310000000     1.528000000
C    -0.427000000     0.508000000     3.011000000
O    -0.706000000    -0.385000000     3.802000000
O    -0.628000000     1.691000000     3.302000000
