17
-87.90133
C     0.591000000     1.322000000     0.340000000
H     1.097000000     2.245000000     0.612000000
C     0.684000000     0.720000000    -0.896000000
H     1.329000000     1.191000000    -1.633000000
C     0.091000000    -0.489000000    -1.096000000
C     0.307000000    -1.268000000    -2.397000000
H    -0.020000000    -2.306000000    -2.312000000
H    -0.254000000    -0.820000000    -3.220000000
H     1.365000000    -1.217000000    -2.663000000
C    -0.593000000    -1.112000000    -0.065000000
H    -1.017000000    -2.101000000    -0.214000000
C    -0.726000000    -0.535000000     1.110000000
H    -1.227000000    -1.113000000     1.882000000
C    -0.091000000     0.709000000     1.399000000
C    -0.327000000     1.411000000     2.722000000
O    -0.880000000     0.765000000     3.610000000
O    -0.332000000     2.596000000     2.820000000
