17
-92.46708
C     0.793000000     0.981000000     0.764000000
H     1.294000000     1.797000000     1.278000000
C     0.781000000     0.823000000    -0.628000000
H     1.483000000     1.386000000    -1.237000000
C     0.058000000    -0.116000000    -1.189000000
C     0.032000000    -0.214000000    -2.699000000
H    -0.854000000     0.261000000    -3.124000000
H     0.898000000     0.316000000    -3.102000000
H     0.130000000    -1.262000000    -2.989000000
C    -0.805000000    -0.922000000    -0.445000000
H    -1.366000000    -1.683000000    -0.982000000
C    -0.805000000    -0.833000000     0.974000000
H    -1.333000000    -1.591000000     1.546000000
C     0.075000000     0.084000000     1.566000000
C    -0.083000000     0.282000000     3.029000000
O    -0.718000000    -0.543000000     3.678000000
O     0.421000000     1.236000000     3.562000000
