17
-95.58446
C     0.688000000     0.772000000     1.025000000
H     1.395000000     1.379000000     1.585000000
C     0.753000000     0.972000000    -0.341000000
H     1.405000000     1.752000000    -0.726000000
C     0.019000000     0.180000000    -1.202000000
C     0.339000000     0.415000000    -2.661000000
H    -0.224000000     1.288000000    -2.996000000
H     1.417000000     0.328000000    -2.807000000
H    -0.084000000    -0.387000000    -3.271000000
C    -0.798000000    -0.812000000    -0.703000000
H    -1.331000000    -1.497000000    -1.358000000
C    -0.933000000    -0.987000000     0.660000000
H    -1.644000000    -1.738000000     0.995000000
C    -0.232000000    -0.169000000     1.557000000
C    -0.211000000    -0.444000000     3.025000000
O    -0.603000000    -1.525000000     3.454000000
O     0.040000000     0.476000000     3.768000000
