17
-100.05074
C     0.464000000     1.077000000     0.957000000
H     0.732000000     1.879000000     1.640000000
C     0.969000000     0.888000000    -0.325000000
H     1.626000000     1.648000000    -0.741000000
C     0.472000000    -0.137000000    -1.153000000
C     0.865000000    -0.304000000    -2.554000000
H     1.813000000    -0.845000000    -2.560000000
H     0.133000000    -0.892000000    -3.112000000
H     1.027000000     0.652000000    -3.056000000
C    -0.546000000    -0.918000000    -0.704000000
H    -1.041000000    -1.632000000    -1.358000000
C    -0.954000000    -0.839000000     0.657000000
H    -1.643000000    -1.566000000     1.080000000
C    -0.496000000     0.139000000     1.492000000
C    -1.030000000     0.240000000     2.906000000
O    -1.581000000    -0.708000000     3.397000000
O    -0.809000000     1.317000000     3.436000000
