17
-98.97458
C    -0.051000000     0.559000000     1.357000000
H     0.111000000     1.092000000     2.291000000
C     0.951000000     0.737000000     0.446000000
H     1.810000000     1.347000000     0.711000000
C     0.906000000     0.202000000    -0.840000000
C     2.037000000     0.399000000    -1.878000000
H     2.129000000    -0.524000000    -2.455000000
H     1.695000000     1.213000000    -2.520000000
H     3.040000000     0.484000000    -1.453000000
C    -0.207000000    -0.630000000    -1.116000000
H    -0.323000000    -1.059000000    -2.108000000
C    -1.244000000    -0.795000000    -0.201000000
H    -2.114000000    -1.409000000    -0.422000000
C    -1.155000000    -0.278000000     1.087000000
C    -2.219000000    -0.467000000     2.103000000
O    -3.354000000    -0.791000000     1.733000000
O    -2.004000000    -0.086000000     3.260000000
