17
-94.24098
C    -0.563000000     0.750000000     1.145000000
H    -1.008000000     1.288000000     1.979000000
C    -0.224000000     1.327000000    -0.040000000
H    -0.351000000     2.388000000    -0.242000000
C     0.343000000     0.556000000    -1.049000000
C     0.578000000     1.122000000    -2.369000000
H    -0.122000000     0.701000000    -3.093000000
H     0.413000000     2.200000000    -2.414000000
H     1.618000000     1.008000000    -2.680000000
C     0.620000000    -0.792000000    -0.849000000
H     1.096000000    -1.374000000    -1.633000000
C     0.241000000    -1.417000000     0.347000000
H     0.369000000    -2.466000000     0.602000000
C    -0.389000000    -0.640000000     1.353000000
C    -0.773000000    -1.356000000     2.585000000
O    -0.526000000    -2.531000000     2.846000000
O    -1.326000000    -0.768000000     3.517000000
