17
-97.50040
C    -1.013000000    -0.554000000     0.949000000
H    -1.714000000    -1.129000000     1.549000000
C     0.196000000    -1.159000000     0.560000000
H     0.446000000    -2.193000000     0.785000000
C     1.096000000    -0.477000000    -0.297000000
C     2.430000000    -1.173000000    -0.695000000
H     2.970000000    -1.269000000     0.250000000
H     2.193000000    -2.199000000    -0.982000000
H     2.919000000    -0.603000000    -1.488000000
C     0.794000000     0.834000000    -0.672000000
H     1.447000000     1.371000000    -1.355000000
C    -0.423000000     1.443000000    -0.333000000
H    -0.693000000     2.372000000    -0.828000000
C    -1.356000000     0.739000000     0.502000000
C    -2.719000000     1.208000000     0.647000000
O    -2.996000000     2.324000000     0.232000000
O    -3.570000000     0.473000000     1.168000000
