17
-95.86696
C     0.747000000     0.034000000     1.251000000
H     1.298000000     0.187000000     2.176000000
C     0.612000000     1.050000000     0.252000000
H     1.126000000     1.981000000     0.478000000
C    -0.183000000     0.887000000    -0.863000000
C    -0.286000000     2.058000000    -1.811000000
H    -1.090000000     2.760000000    -1.579000000
H     0.581000000     2.718000000    -1.872000000
H    -0.439000000     1.520000000    -2.749000000
C    -0.777000000    -0.323000000    -1.001000000
H    -1.396000000    -0.503000000    -1.877000000
C    -0.602000000    -1.389000000    -0.109000000
H    -0.950000000    -2.376000000    -0.403000000
C     0.201000000    -1.192000000     1.026000000
C     0.347000000    -2.208000000     2.095000000
O    -0.491000000    -3.084000000     2.095000000
O     1.307000000    -2.120000000     2.883000000
