17
-99.72739
C    -1.193000000    -0.423000000    -0.744000000
H    -1.977000000    -0.857000000    -1.359000000
C     0.038000000    -1.010000000    -0.730000000
H     0.172000000    -1.948000000    -1.263000000
C     1.106000000    -0.544000000     0.012000000
C     2.476000000    -1.134000000    -0.270000000
H     3.134000000    -0.944000000     0.581000000
H     2.371000000    -2.219000000    -0.341000000
H     2.861000000    -0.694000000    -1.192000000
C     0.882000000     0.608000000     0.823000000
H     1.710000000     1.117000000     1.310000000
C    -0.378000000     1.158000000     0.885000000
H    -0.551000000     2.029000000     1.511000000
C    -1.408000000     0.666000000     0.103000000
C    -2.754000000     1.260000000     0.181000000
O    -2.784000000     2.457000000     0.395000000
O    -3.701000000     0.484000000     0.093000000
