17
-90.39775
C    -0.773000000    -0.687000000    -1.141000000
H    -1.247000000    -1.323000000    -1.883000000
C     0.542000000    -0.985000000    -0.727000000
H     0.917000000    -1.926000000    -1.121000000
C     1.139000000    -0.359000000     0.362000000
C     2.571000000    -0.734000000     0.880000000
H     2.677000000    -0.440000000     1.926000000
H     2.501000000    -1.822000000     0.834000000
H     3.347000000    -0.288000000     0.254000000
C     0.420000000     0.652000000     1.015000000
H     0.838000000     1.061000000     1.932000000
C    -0.830000000     1.091000000     0.562000000
H    -1.325000000     1.951000000     1.005000000
C    -1.392000000     0.494000000    -0.599000000
C    -2.739000000     1.015000000    -1.039000000
O    -3.228000000     2.006000000    -0.534000000
O    -3.413000000     0.300000000    -1.722000000
