17
-91.74198
C    -0.699000000    -0.553000000    -1.197000000
H    -1.218000000    -1.119000000    -1.966000000
C     0.379000000    -1.187000000    -0.479000000
H     0.682000000    -2.195000000    -0.750000000
C     0.955000000    -0.547000000     0.592000000
C     2.029000000    -1.171000000     1.495000000
H     2.049000000    -0.703000000     2.481000000
H     1.686000000    -2.193000000     1.669000000
H     2.950000000    -1.165000000     0.909000000
C     0.413000000     0.682000000     0.961000000
H     0.687000000     1.015000000     1.959000000
C    -0.551000000     1.307000000     0.247000000
H    -0.978000000     2.212000000     0.671000000
C    -1.146000000     0.739000000    -0.885000000
C    -2.137000000     1.453000000    -1.668000000
O    -2.535000000     2.541000000    -1.371000000
O    -2.563000000     0.884000000    -2.672000000
