17
-92.49338
C     0.254000000     0.097000000     1.457000000
H     0.420000000     0.346000000     2.502000000
C     0.198000000     1.150000000     0.513000000
H     0.325000000     2.179000000     0.840000000
C    -0.013000000     0.930000000    -0.851000000
C    -0.365000000     2.054000000    -1.745000000
H     0.628000000     2.385000000    -2.056000000
H    -0.977000000     1.816000000    -2.617000000
H    -0.919000000     2.794000000    -1.164000000
C    -0.114000000    -0.377000000    -1.267000000
H    -0.400000000    -0.518000000    -2.306000000
C     0.043000000    -1.434000000    -0.354000000
H    -0.075000000    -2.473000000    -0.653000000
C     0.178000000    -1.162000000     0.980000000
C     0.283000000    -2.311000000     1.996000000
O     0.327000000    -3.472000000     1.605000000
O     0.204000000    -1.998000000     3.121000000
