17
-91.86345
C    -1.070000000    -0.528000000    -0.898000000
H    -1.869000000    -1.001000000    -1.465000000
C     0.252000000    -0.936000000    -0.902000000
H     0.640000000    -1.783000000    -1.464000000
C     1.193000000    -0.322000000    -0.047000000
C     2.569000000    -0.933000000     0.020000000
H     2.721000000    -1.572000000    -0.852000000
H     3.326000000    -0.146000000     0.054000000
H     2.649000000    -1.476000000     0.963000000
C     0.781000000     0.673000000     0.831000000
H     1.502000000     1.034000000     1.560000000
C    -0.506000000     1.099000000     0.804000000
H    -0.732000000     1.891000000     1.513000000
C    -1.470000000     0.534000000    -0.047000000
C    -2.953000000     0.989000000     0.013000000
O    -3.400000000     1.681000000     0.873000000
O    -3.627000000     0.790000000    -0.957000000
