17
-91.32137
C    -0.988000000    -0.109000000    -1.038000000
H    -1.683000000    -0.252000000    -1.862000000
C     0.228000000    -0.706000000    -1.116000000
H     0.547000000    -1.154000000    -2.054000000
C     1.104000000    -0.586000000     0.014000000
C     2.488000000    -0.951000000    -0.203000000
H     2.617000000    -1.918000000    -0.693000000
H     3.018000000    -0.243000000    -0.844000000
H     3.021000000    -0.938000000     0.750000000
C     0.697000000     0.210000000     1.131000000
H     1.444000000     0.456000000     1.882000000
C    -0.625000000     0.721000000     1.196000000
H    -0.981000000     1.282000000     2.057000000
C    -1.408000000     0.588000000     0.092000000
C    -2.769000000     1.072000000     0.203000000
O    -3.089000000     1.959000000     0.986000000
O    -3.627000000     0.572000000    -0.494000000
