17
-94.02670
C    -0.884000000    -0.495000000    -1.094000000
H    -1.404000000    -0.908000000    -1.955000000
C     0.504000000    -0.567000000    -1.081000000
H     1.016000000    -1.055000000    -1.907000000
C     1.252000000    -0.112000000     0.026000000
C     2.772000000    -0.291000000     0.132000000
H     3.130000000    -0.824000000    -0.751000000
H     3.320000000     0.638000000     0.307000000
H     2.920000000    -0.851000000     1.058000000
C     0.569000000     0.516000000     0.994000000
H     1.037000000     0.946000000     1.876000000
C    -0.828000000     0.615000000     0.992000000
H    -1.413000000     1.122000000     1.755000000
C    -1.628000000     0.113000000    -0.079000000
C    -3.054000000     0.324000000    -0.077000000
O    -3.616000000     0.974000000     0.797000000
O    -3.701000000    -0.138000000    -0.992000000
