17
-93.90754
C    -0.127000000    -0.827000000    -1.197000000
H    -0.051000000    -1.416000000    -2.108000000
C     1.013000000    -0.685000000    -0.394000000
H     1.934000000    -1.200000000    -0.656000000
C     1.024000000     0.125000000     0.737000000
C     2.283000000     0.114000000     1.536000000
H     2.662000000    -0.903000000     1.652000000
H     3.023000000     0.826000000     1.163000000
H     2.099000000     0.525000000     2.530000000
C    -0.157000000     0.827000000     1.026000000
H    -0.209000000     1.469000000     1.902000000
C    -1.318000000     0.688000000     0.255000000
H    -2.186000000     1.292000000     0.506000000
C    -1.301000000    -0.090000000    -0.959000000
C    -2.551000000    -0.289000000    -1.756000000
O    -3.561000000     0.251000000    -1.336000000
O    -2.584000000    -0.701000000    -2.897000000
