17
-89.58185
C    -0.762000000    -1.150000000    -0.474000000
H    -1.383000000    -2.043000000    -0.475000000
C     0.402000000    -1.227000000     0.289000000
H     0.754000000    -2.206000000     0.602000000
C     1.034000000    -0.036000000     0.624000000
C     2.352000000    -0.087000000     1.424000000
H     2.313000000    -0.781000000     2.266000000
H     3.173000000    -0.402000000     0.777000000
H     2.602000000     0.901000000     1.819000000
C     0.582000000     1.192000000     0.194000000
H     1.132000000     2.113000000     0.371000000
C    -0.605000000     1.215000000    -0.626000000
H    -0.924000000     2.145000000    -1.091000000
C    -1.322000000     0.067000000    -0.903000000
C    -2.750000000     0.087000000    -1.420000000
O    -3.193000000     1.110000000    -1.859000000
O    -3.402000000    -0.892000000    -1.512000000
