17
-95.17425
C    -0.806000000    -1.186000000    -0.149000000
H    -1.424000000    -2.079000000    -0.185000000
C     0.345000000    -1.047000000     0.601000000
H     0.674000000    -1.904000000     1.184000000
C     1.086000000     0.133000000     0.613000000
C     2.293000000     0.142000000     1.565000000
H     3.223000000     0.105000000     0.994000000
H     2.250000000     1.072000000     2.136000000
H     2.302000000    -0.741000000     2.207000000
C     0.597000000     1.255000000    -0.076000000
H     1.218000000     2.144000000    -0.149000000
C    -0.589000000     1.131000000    -0.831000000
H    -0.899000000     1.972000000    -1.447000000
C    -1.284000000    -0.097000000    -0.891000000
C    -2.623000000    -0.274000000    -1.664000000
O    -3.159000000     0.695000000    -2.157000000
O    -3.207000000    -1.317000000    -1.755000000
