17
-99.41853
C    -0.266000000    -1.206000000    -0.875000000
H    -0.376000000    -2.157000000    -1.390000000
C     0.956000000    -0.894000000    -0.242000000
H     1.798000000    -1.559000000    -0.421000000
C     1.074000000     0.270000000     0.490000000
C     2.421000000     0.606000000     1.209000000
H     2.371000000     0.401000000     2.280000000
H     3.316000000     0.132000000     0.801000000
H     2.558000000     1.681000000     1.072000000
C    -0.034000000     1.104000000     0.613000000
H     0.088000000     2.010000000     1.201000000
C    -1.259000000     0.758000000     0.085000000
H    -2.063000000     1.487000000     0.157000000
C    -1.356000000    -0.373000000    -0.749000000
C    -2.737000000    -0.710000000    -1.225000000
O    -3.600000000     0.142000000    -1.066000000
O    -2.899000000    -1.698000000    -1.934000000
