17
-94.65576
C    -0.133000000    -0.220000000     1.439000000
H    -0.520000000    -0.328000000     2.449000000
C    -0.643000000     0.896000000     0.732000000
H    -1.371000000     1.577000000     1.165000000
C    -0.364000000     0.932000000    -0.656000000
C    -1.156000000     2.038000000    -1.452000000
H    -2.210000000     1.948000000    -1.179000000
H    -0.826000000     3.053000000    -1.218000000
H    -1.001000000     1.955000000    -2.530000000
C     0.447000000    -0.018000000    -1.298000000
H     0.691000000     0.049000000    -2.355000000
C     0.978000000    -1.047000000    -0.530000000
H     1.450000000    -1.915000000    -0.982000000
C     0.708000000    -1.115000000     0.811000000
C     1.170000000    -2.288000000     1.613000000
O     1.823000000    -3.244000000     1.167000000
O     0.964000000    -2.280000000     2.821000000
