17
-88.47161
C    -0.185000000    -0.963000000    -1.213000000
H    -0.096000000    -1.546000000    -2.126000000
C     1.099000000    -0.389000000    -0.817000000
H     2.048000000    -0.636000000    -1.285000000
C     1.093000000     0.377000000     0.370000000
C     2.378000000     1.020000000     0.939000000
H     3.156000000     0.255000000     0.928000000
H     2.680000000     1.936000000     0.427000000
H     2.150000000     1.171000000     1.996000000
C    -0.117000000     0.797000000     0.923000000
H    -0.072000000     1.439000000     1.799000000
C    -1.302000000     0.251000000     0.461000000
H    -2.236000000     0.638000000     0.859000000
C    -1.350000000    -0.676000000    -0.505000000
C    -2.705000000    -1.198000000    -0.807000000
O    -3.551000000    -1.152000000     0.054000000
O    -2.997000000    -1.330000000    -2.004000000
