17
-97.69250
C    -0.160000000    -1.449000000    -0.288000000
H    -0.054000000    -2.529000000    -0.353000000
C     0.586000000    -0.898000000     0.752000000
H     1.213000000    -1.596000000     1.300000000
C     0.697000000     0.490000000     0.840000000
C     1.669000000     1.098000000     1.852000000
H     2.698000000     0.737000000     1.785000000
H     1.552000000     2.175000000     1.716000000
H     1.317000000     0.916000000     2.869000000
C     0.029000000     1.323000000    -0.041000000
H    -0.080000000     2.370000000     0.231000000
C    -0.781000000     0.788000000    -1.030000000
H    -1.329000000     1.444000000    -1.702000000
C    -0.887000000    -0.629000000    -1.136000000
C    -1.871000000    -1.241000000    -2.089000000
O    -2.762000000    -0.530000000    -2.552000000
O    -1.836000000    -2.472000000    -2.154000000
