17
-90.70727
C    -0.111000000    -1.211000000    -0.790000000
H     0.042000000    -2.055000000    -1.457000000
C     0.818000000    -0.986000000     0.162000000
H     1.638000000    -1.674000000     0.352000000
C     0.772000000     0.186000000     0.927000000
C     1.900000000     0.517000000     1.920000000
H     1.679000000     1.270000000     2.681000000
H     2.386000000    -0.420000000     2.198000000
H     2.705000000     0.969000000     1.338000000
C    -0.223000000     1.095000000     0.672000000
H    -0.222000000     2.011000000     1.257000000
C    -1.246000000     0.880000000    -0.285000000
H    -1.976000000     1.655000000    -0.505000000
C    -1.121000000    -0.306000000    -1.026000000
C    -2.116000000    -0.588000000    -2.125000000
O    -2.896000000     0.260000000    -2.553000000
O    -2.024000000    -1.598000000    -2.766000000
