17
-87.54008
C    -0.739000000    -1.316000000     0.227000000
H    -1.093000000    -2.321000000     0.440000000
C     0.611000000    -0.999000000     0.620000000
H     1.288000000    -1.744000000     1.030000000
C     1.160000000     0.238000000     0.318000000
C     2.539000000     0.618000000     0.785000000
H     3.164000000     0.934000000    -0.054000000
H     2.462000000     1.340000000     1.601000000
H     3.059000000    -0.246000000     1.204000000
C     0.413000000     1.226000000    -0.304000000
H     0.810000000     2.237000000    -0.332000000
C    -0.943000000     0.960000000    -0.649000000
H    -1.568000000     1.707000000    -1.132000000
C    -1.501000000    -0.300000000    -0.436000000
C    -2.843000000    -0.659000000    -0.942000000
O    -3.409000000     0.002000000    -1.746000000
O    -3.412000000    -1.678000000    -0.633000000
