17
-96.45361
C    -0.776000000    -0.431000000     1.194000000
H    -1.234000000    -0.831000000     2.095000000
C     0.187000000     0.527000000     1.194000000
H     0.564000000     0.846000000     2.162000000
C     0.737000000     0.996000000     0.021000000
C     1.807000000     2.078000000     0.036000000
H     2.069000000     2.343000000    -0.990000000
H     1.538000000     2.952000000     0.633000000
H     2.709000000     1.695000000     0.517000000
C     0.377000000     0.331000000    -1.208000000
H     0.857000000     0.615000000    -2.141000000
C    -0.500000000    -0.737000000    -1.170000000
H    -0.653000000    -1.269000000    -2.106000000
C    -1.130000000    -1.143000000    -0.023000000
C    -2.044000000    -2.298000000    -0.037000000
O    -2.640000000    -2.596000000    -1.076000000
O    -1.876000000    -3.084000000     0.902000000
