17
-88.18430
C    -0.800000000    -0.374000000     1.147000000
H    -1.287000000    -0.624000000     2.086000000
C     0.269000000     0.492000000     1.173000000
H     0.558000000     1.046000000     2.062000000
C     0.946000000     0.828000000    -0.019000000
C     1.997000000     1.856000000    -0.010000000
H     2.647000000     1.500000000    -0.812000000
H     1.570000000     2.819000000    -0.298000000
H     2.593000000     1.826000000     0.904000000
C     0.524000000     0.275000000    -1.219000000
H     1.137000000     0.424000000    -2.104000000
C    -0.500000000    -0.660000000    -1.179000000
H    -0.795000000    -1.234000000    -2.054000000
C    -1.183000000    -1.030000000    -0.002000000
C    -2.305000000    -2.044000000     0.061000000
O    -2.504000000    -2.779000000    -0.846000000
O    -2.865000000    -2.329000000     1.110000000
