17
-89.85433
C    -0.482000000    -1.305000000     0.415000000
H    -0.733000000    -2.242000000     0.905000000
C    -0.724000000    -0.154000000     1.093000000
H    -1.119000000    -0.215000000     2.104000000
C    -0.238000000     1.045000000     0.571000000
C    -0.524000000     2.410000000     1.309000000
H    -1.520000000     2.464000000     1.753000000
H     0.092000000     2.427000000     2.211000000
H    -0.186000000     3.298000000     0.771000000
C     0.370000000     1.019000000    -0.679000000
H     0.585000000     1.965000000    -1.169000000
C     0.603000000    -0.151000000    -1.391000000
H     1.084000000    -0.186000000    -2.365000000
C     0.223000000    -1.341000000    -0.807000000
C     0.719000000    -2.663000000    -1.371000000
O     1.588000000    -2.657000000    -2.263000000
O     0.257000000    -3.715000000    -1.088000000
