17
-87.44830
C     0.025000000    -1.496000000    -0.269000000
H    -0.034000000    -2.567000000    -0.444000000
C    -0.685000000    -0.902000000     0.733000000
H    -1.244000000    -1.591000000     1.361000000
C    -0.701000000     0.538000000     0.906000000
C    -1.273000000     1.262000000     2.084000000
H    -2.244000000     1.711000000     1.865000000
H    -1.359000000     0.501000000     2.862000000
H    -0.460000000     1.868000000     2.489000000
C    -0.004000000     1.316000000    -0.042000000
H    -0.027000000     2.401000000     0.021000000
C     0.720000000     0.720000000    -1.047000000
H     1.250000000     1.360000000    -1.748000000
C     0.768000000    -0.698000000    -1.117000000
C     1.505000000    -1.323000000    -2.267000000
O     1.881000000    -0.642000000    -3.175000000
O     1.890000000    -2.453000000    -2.218000000
