17
-96.45300
C    -0.737000000    -0.635000000    -1.142000000
H    -1.421000000    -0.934000000    -1.932000000
C    -1.237000000    -0.200000000     0.094000000
H    -2.313000000    -0.287000000     0.220000000
C    -0.488000000     0.268000000     1.146000000
C    -1.122000000     0.942000000     2.341000000
H    -1.496000000     1.918000000     2.025000000
H    -1.904000000     0.298000000     2.749000000
H    -0.366000000     1.011000000     3.127000000
C     0.879000000     0.315000000     0.922000000
H     1.481000000     0.705000000     1.739000000
C     1.413000000     0.064000000    -0.358000000
H     2.480000000     0.234000000    -0.472000000
C     0.629000000    -0.500000000    -1.409000000
C     1.254000000    -0.998000000    -2.686000000
O     2.238000000    -0.367000000    -3.005000000
O     0.711000000    -1.837000000    -3.366000000
