17
-95.16997
C     0.874000000    -1.195000000     0.283000000
H     1.563000000    -1.929000000     0.694000000
C    -0.153000000    -0.660000000     1.105000000
H    -0.275000000    -0.883000000     2.161000000
C    -0.958000000     0.425000000     0.698000000
C    -1.912000000     1.076000000     1.633000000
H    -2.455000000     1.882000000     1.135000000
H    -2.679000000     0.374000000     1.967000000
H    -1.380000000     1.425000000     2.521000000
C    -0.754000000     0.930000000    -0.622000000
H    -1.209000000     1.852000000    -0.974000000
C     0.199000000     0.334000000    -1.473000000
H     0.365000000     0.895000000    -2.388000000
C     0.983000000    -0.761000000    -1.039000000
C     2.219000000    -1.209000000    -1.717000000
O     2.416000000    -0.854000000    -2.898000000
O     3.158000000    -1.697000000    -1.084000000
