17
-93.88523
C     0.225000000    -1.425000000     0.376000000
H     0.257000000    -2.458000000     0.712000000
C    -0.556000000    -0.431000000     1.055000000
H    -1.085000000    -0.709000000     1.962000000
C    -0.642000000     0.904000000     0.558000000
C    -1.676000000     1.741000000     1.277000000
H    -2.398000000     1.109000000     1.799000000
H    -1.197000000     2.373000000     2.027000000
H    -2.343000000     2.334000000     0.647000000
C     0.161000000     1.323000000    -0.496000000
H     0.102000000     2.367000000    -0.795000000
C     0.907000000     0.282000000    -1.178000000
H     1.472000000     0.518000000    -2.075000000
C     0.915000000    -1.021000000    -0.725000000
C     1.705000000    -2.026000000    -1.514000000
O     2.146000000    -1.742000000    -2.590000000
O     2.013000000    -3.138000000    -1.041000000
