17
-89.06983
C     1.088000000    -0.261000000     0.889000000
H     1.853000000    -0.373000000     1.652000000
C    -0.087000000     0.272000000     1.238000000
H    -0.281000000     0.494000000     2.284000000
C    -1.168000000     0.406000000     0.270000000
C    -2.374000000     1.201000000     0.786000000
H    -2.055000000     2.139000000     1.246000000
H    -2.788000000     1.461000000    -0.190000000
H    -3.157000000     0.744000000     1.395000000
C    -0.913000000     0.020000000    -1.056000000
H    -1.667000000     0.031000000    -1.839000000
C     0.371000000    -0.567000000    -1.394000000
H     0.641000000    -0.902000000    -2.393000000
C     1.344000000    -0.680000000    -0.411000000
C     2.685000000    -1.215000000    -0.744000000
O     2.947000000    -1.723000000    -1.809000000
O     3.553000000    -1.044000000     0.082000000
