17
-95.78298
C     0.493000000    -1.001000000     0.916000000
H     0.831000000    -1.720000000     1.657000000
C     0.077000000     0.277000000     1.305000000
H     0.178000000     0.601000000     2.338000000
C    -0.456000000     1.129000000     0.315000000
C    -0.743000000     2.477000000     0.665000000
H    -1.653000000     2.636000000     1.246000000
H    -0.087000000     2.923000000     1.416000000
H    -0.761000000     3.084000000    -0.243000000
C    -0.480000000     0.701000000    -1.058000000
H    -0.841000000     1.386000000    -1.821000000
C    -0.015000000    -0.549000000    -1.349000000
H    -0.143000000    -0.861000000    -2.383000000
C     0.449000000    -1.469000000    -0.408000000
C     0.929000000    -2.842000000    -0.786000000
O     0.498000000    -3.378000000    -1.772000000
O     1.725000000    -3.391000000    -0.034000000
