17
-90.30939
C     0.578000000    -1.059000000     0.901000000
H     1.033000000    -1.830000000     1.518000000
C     0.120000000     0.138000000     1.398000000
H    -0.029000000     0.372000000     2.450000000
C    -0.379000000     1.016000000     0.465000000
C    -0.755000000     2.450000000     0.772000000
H    -1.181000000     2.604000000     1.766000000
H     0.002000000     3.213000000     0.578000000
H    -1.595000000     2.768000000     0.151000000
C    -0.408000000     0.797000000    -0.928000000
H    -0.741000000     1.555000000    -1.632000000
C    -0.037000000    -0.465000000    -1.381000000
H    -0.198000000    -0.722000000    -2.424000000
C     0.445000000    -1.446000000    -0.449000000
C     0.938000000    -2.748000000    -0.946000000
O     1.036000000    -3.069000000    -2.124000000
O     1.166000000    -3.571000000    -0.108000000
