17
-94.74114
C     1.269000000    -0.737000000     0.469000000
H     2.145000000    -1.236000000     0.876000000
C     0.558000000     0.229000000     1.140000000
H     0.887000000     0.518000000     2.134000000
C    -0.498000000     0.944000000     0.603000000
C    -1.231000000     1.994000000     1.388000000
H    -1.331000000     1.584000000     2.395000000
H    -0.686000000     2.936000000     1.295000000
H    -2.254000000     2.086000000     1.017000000
C    -0.877000000     0.712000000    -0.679000000
H    -1.737000000     1.203000000    -1.129000000
C    -0.325000000    -0.363000000    -1.307000000
H    -0.772000000    -0.717000000    -2.233000000
C     0.733000000    -1.152000000    -0.756000000
C     1.303000000    -2.354000000    -1.531000000
O     1.131000000    -2.328000000    -2.744000000
O     1.681000000    -3.327000000    -0.935000000
