17
-91.95829
C     1.344000000    -0.591000000     0.149000000
H     2.354000000    -0.985000000     0.215000000
C     1.091000000     0.652000000    -0.394000000
H     1.891000000     1.211000000    -0.870000000
C    -0.244000000     1.127000000    -0.461000000
C    -0.475000000     2.477000000    -1.002000000
H     0.469000000     3.024000000    -0.954000000
H    -0.628000000     2.459000000    -2.083000000
H    -1.266000000     2.978000000    -0.440000000
C    -1.282000000     0.328000000     0.009000000
H    -2.302000000     0.702000000     0.043000000
C    -1.036000000    -0.963000000     0.509000000
H    -1.905000000    -1.554000000     0.788000000
C     0.243000000    -1.374000000     0.629000000
C     0.500000000    -2.751000000     1.145000000
O    -0.342000000    -3.496000000     1.637000000
O     1.595000000    -3.238000000     1.074000000
