17
-95.39507
C     1.415000000     0.445000000    -0.225000000
H     2.430000000     0.831000000    -0.275000000
C     0.309000000     1.282000000    -0.112000000
H     0.531000000     2.328000000     0.084000000
C    -0.933000000     0.728000000     0.010000000
C    -2.119000000     1.663000000     0.299000000
H    -2.016000000     1.999000000     1.332000000
H    -2.135000000     2.552000000    -0.335000000
H    -3.067000000     1.123000000     0.243000000
C    -1.155000000    -0.612000000    -0.089000000
H    -2.174000000    -0.957000000     0.070000000
C    -0.088000000    -1.460000000    -0.072000000
H    -0.303000000    -2.522000000     0.021000000
C     1.213000000    -0.920000000    -0.167000000
C     2.372000000    -1.913000000    -0.298000000
O     2.246000000    -3.081000000     0.051000000
O     3.479000000    -1.478000000    -0.545000000
