17
-94.57600
C     0.816000000     0.681000000    -1.032000000
H     1.343000000     1.244000000    -1.798000000
C     0.096000000     1.273000000     0.049000000
H     0.084000000     2.357000000     0.121000000
C    -0.650000000     0.550000000     0.937000000
C    -1.289000000     1.178000000     2.114000000
H    -2.186000000     0.632000000     2.410000000
H    -0.561000000     1.175000000     2.928000000
H    -1.464000000     2.255000000     2.052000000
C    -0.696000000    -0.823000000     0.748000000
H    -1.233000000    -1.440000000     1.463000000
C     0.011000000    -1.402000000    -0.301000000
H    -0.085000000    -2.484000000    -0.338000000
C     0.723000000    -0.667000000    -1.262000000
C     1.525000000    -1.298000000    -2.386000000
O     1.702000000    -2.543000000    -2.368000000
O     1.869000000    -0.692000000    -3.345000000
