17
-74.37322
C     0.730000000     0.405000000    -1.208000000
H     1.232000000     0.837000000    -2.070000000
C     0.134000000     1.226000000    -0.324000000
H     0.133000000     2.301000000    -0.485000000
C    -0.484000000     0.799000000     0.773000000
C    -1.118000000     1.656000000     1.819000000
H    -0.573000000     2.586000000     1.995000000
H    -2.124000000     1.872000000     1.453000000
H    -1.046000000     1.132000000     2.774000000
C    -0.498000000    -0.566000000     1.018000000
H    -1.018000000    -0.949000000     1.892000000
C    -0.003000000    -1.483000000     0.111000000
H    -0.182000000    -2.537000000     0.308000000
C     0.568000000    -0.937000000    -1.039000000
C     1.154000000    -1.870000000    -2.051000000
O     1.314000000    -3.019000000    -1.919000000
O     1.785000000    -1.447000000    -3.043000000
