17
-96.26355
C     1.122000000     0.242000000    -0.919000000
H     1.703000000     0.755000000    -1.680000000
C     0.761000000     1.073000000     0.150000000
H     1.130000000     2.093000000     0.219000000
C    -0.285000000     0.708000000     1.008000000
C    -0.849000000     1.753000000     1.923000000
H    -0.256000000     1.968000000     2.814000000
H    -1.099000000     2.711000000     1.462000000
H    -1.805000000     1.341000000     2.252000000
C    -0.768000000    -0.574000000     0.857000000
H    -1.475000000    -0.976000000     1.579000000
C    -0.426000000    -1.409000000    -0.184000000
H    -0.797000000    -2.426000000    -0.286000000
C     0.574000000    -1.039000000    -1.076000000
C     0.811000000    -1.859000000    -2.352000000
O     0.353000000    -3.029000000    -2.436000000
O     1.313000000    -1.337000000    -3.325000000
