17
-92.86529
C     1.019000000     0.444000000    -0.910000000
H     1.785000000     0.996000000    -1.449000000
C     0.605000000     1.158000000     0.180000000
H     1.151000000     2.083000000     0.349000000
C    -0.313000000     0.631000000     1.029000000
C    -1.003000000     1.493000000     2.084000000
H    -0.756000000     1.132000000     3.085000000
H    -0.541000000     2.475000000     1.963000000
H    -2.090000000     1.570000000     2.007000000
C    -0.889000000    -0.624000000     0.767000000
H    -1.622000000    -1.090000000     1.420000000
C    -0.491000000    -1.380000000    -0.372000000
H    -0.999000000    -2.300000000    -0.648000000
C     0.532000000    -0.853000000    -1.197000000
C     1.059000000    -1.663000000    -2.450000000
O     0.532000000    -2.769000000    -2.733000000
O     2.013000000    -1.308000000    -3.131000000
