17
-98.76353
C     0.797000000     0.955000000    -0.724000000
H     1.557000000     1.649000000    -1.073000000
C     0.621000000     0.893000000     0.656000000
H     1.187000000     1.608000000     1.246000000
C    -0.198000000    -0.036000000     1.223000000
C    -0.193000000    -0.084000000     2.752000000
H    -1.075000000     0.339000000     3.237000000
H    -0.247000000    -1.148000000     2.995000000
H     0.695000000     0.376000000     3.192000000
C    -0.796000000    -0.977000000     0.398000000
H    -1.352000000    -1.817000000     0.807000000
C    -0.761000000    -0.812000000    -1.037000000
H    -1.344000000    -1.484000000    -1.662000000
C     0.064000000     0.147000000    -1.597000000
C     0.280000000     0.137000000    -3.083000000
O    -0.542000000    -0.402000000    -3.811000000
O     1.300000000     0.654000000    -3.511000000
