17
-97.46258
C     1.039000000    -0.476000000    -0.903000000
H     1.819000000    -1.044000000    -1.404000000
C     1.178000000    -0.258000000     0.428000000
H     2.124000000    -0.474000000     0.919000000
C     0.157000000     0.277000000     1.184000000
C     0.362000000     0.495000000     2.699000000
H    -0.366000000     1.144000000     3.191000000
H     0.257000000    -0.504000000     3.129000000
H     1.385000000     0.827000000     2.889000000
C    -1.073000000     0.615000000     0.576000000
H    -1.891000000     1.075000000     1.125000000
C    -1.239000000     0.221000000    -0.761000000
H    -2.193000000     0.425000000    -1.241000000
C    -0.186000000    -0.286000000    -1.556000000
C    -0.382000000    -0.552000000    -3.034000000
O    -1.510000000    -0.492000000    -3.504000000
O     0.520000000    -0.992000000    -3.740000000
