17
-93.69976
C     0.115000000     0.508000000     1.329000000
H     0.084000000     0.905000000     2.341000000
C    -0.894000000     0.840000000     0.396000000
H    -1.695000000     1.460000000     0.790000000
C    -0.953000000     0.202000000    -0.781000000
C    -1.985000000     0.639000000    -1.759000000
H    -2.720000000    -0.120000000    -2.034000000
H    -2.457000000     1.524000000    -1.328000000
H    -1.480000000     0.875000000    -2.699000000
C     0.042000000    -0.710000000    -1.154000000
H    -0.027000000    -1.190000000    -2.127000000
C     1.111000000    -0.950000000    -0.287000000
H     1.873000000    -1.692000000    -0.512000000
C     1.202000000    -0.255000000     0.969000000
C     2.332000000    -0.520000000     2.031000000
O     3.355000000    -1.061000000     1.631000000
O     2.092000000    -0.455000000     3.202000000
