17
-96.78083
C    -0.069000000    -1.495000000    -0.194000000
H    -0.163000000    -2.571000000    -0.318000000
C    -0.045000000    -0.835000000     1.061000000
H    -0.371000000    -1.323000000     1.976000000
C     0.027000000     0.590000000     1.085000000
C    -0.145000000     1.303000000     2.410000000
H     0.655000000     2.020000000     2.605000000
H    -1.091000000     1.839000000     2.512000000
H    -0.079000000     0.660000000     3.291000000
C     0.111000000     1.281000000    -0.082000000
H     0.342000000     2.336000000    -0.200000000
C     0.108000000     0.610000000    -1.320000000
H     0.264000000     1.245000000    -2.189000000
C    -0.011000000    -0.782000000    -1.408000000
C     0.120000000    -1.411000000    -2.737000000
O    -0.101000000    -0.849000000    -3.799000000
O     0.452000000    -2.619000000    -2.696000000
