17
-94.26647
C     1.219000000    -0.826000000    -0.084000000
H     2.149000000    -1.388000000    -0.112000000
C     0.775000000    -0.178000000     1.057000000
H     1.436000000    -0.178000000     1.920000000
C    -0.418000000     0.505000000     1.027000000
C    -0.791000000     1.348000000     2.220000000
H    -0.368000000     0.807000000     3.069000000
H    -0.353000000     2.348000000     2.191000000
H    -1.866000000     1.448000000     2.385000000
C    -1.101000000     0.743000000    -0.138000000
H    -1.977000000     1.374000000    -0.268000000
C    -0.656000000     0.067000000    -1.294000000
H    -1.201000000     0.169000000    -2.229000000
C     0.409000000    -0.799000000    -1.242000000
C     0.859000000    -1.542000000    -2.522000000
O     0.201000000    -1.473000000    -3.540000000
O     1.690000000    -2.431000000    -2.437000000
