17
-93.60460
C     1.113000000    -0.944000000    -0.239000000
H     1.974000000    -1.566000000    -0.467000000
C     0.860000000    -0.167000000     0.908000000
H     1.632000000    -0.107000000     1.671000000
C    -0.213000000     0.637000000     1.045000000
C    -0.319000000     1.506000000     2.263000000
H    -0.325000000     2.559000000     1.976000000
H    -1.224000000     1.148000000     2.759000000
H     0.512000000     1.295000000     2.939000000
C    -1.121000000     0.706000000     0.002000000
H    -1.944000000     1.409000000     0.103000000
C    -0.925000000     0.008000000    -1.158000000
H    -1.630000000    -0.043000000    -1.983000000
C     0.218000000    -0.827000000    -1.258000000
C     0.443000000    -1.617000000    -2.516000000
O    -0.240000000    -1.384000000    -3.478000000
O     1.190000000    -2.614000000    -2.564000000
