17
-97.47152
C     1.069000000    -0.928000000    -0.439000000
H     1.913000000    -1.564000000    -0.691000000
C     0.944000000    -0.394000000     0.874000000
H     1.652000000    -0.622000000     1.666000000
C    -0.149000000     0.403000000     1.182000000
C    -0.320000000     0.938000000     2.559000000
H     0.647000000     1.112000000     3.033000000
H    -0.813000000     1.906000000     2.451000000
H    -0.934000000     0.276000000     3.174000000
C    -1.077000000     0.716000000     0.157000000
H    -1.961000000     1.303000000     0.394000000
C    -0.870000000     0.254000000    -1.144000000
H    -1.551000000     0.635000000    -1.901000000
C     0.161000000    -0.587000000    -1.448000000
C     0.417000000    -0.968000000    -2.917000000
O    -0.230000000    -0.512000000    -3.815000000
O     1.102000000    -1.972000000    -3.139000000
