17
-90.59337
C     0.872000000    -1.187000000    -0.205000000
H     1.615000000    -1.963000000    -0.370000000
C     1.042000000    -0.179000000     0.786000000
H     1.913000000    -0.202000000     1.435000000
C     0.059000000     0.795000000     0.944000000
C     0.365000000     1.884000000     1.910000000
H    -0.330000000     2.726000000     1.908000000
H     0.218000000     1.500000000     2.922000000
H     1.356000000     2.330000000     1.808000000
C    -0.903000000     0.877000000     0.032000000
H    -1.656000000     1.657000000     0.119000000
C    -1.083000000    -0.069000000    -0.957000000
H    -1.994000000    -0.050000000    -1.550000000
C    -0.211000000    -1.145000000    -1.090000000
C    -0.437000000    -2.096000000    -2.200000000
O    -1.120000000    -1.799000000    -3.170000000
O     0.292000000    -3.075000000    -2.315000000
