17
-95.07245
C     0.909000000    -1.181000000    -0.218000000
H     1.627000000    -1.985000000    -0.083000000
C     1.190000000    -0.040000000     0.590000000
H     2.101000000    -0.040000000     1.182000000
C     0.279000000     1.040000000     0.589000000
C     0.554000000     2.276000000     1.472000000
H     1.631000000     2.365000000     1.628000000
H    -0.028000000     3.151000000     1.173000000
H     0.151000000     2.163000000     2.481000000
C    -1.007000000     0.878000000     0.004000000
H    -1.813000000     1.599000000     0.118000000
C    -1.242000000    -0.258000000    -0.750000000
H    -2.167000000    -0.350000000    -1.314000000
C    -0.265000000    -1.272000000    -0.921000000
C    -0.559000000    -2.489000000    -1.739000000
O    -1.612000000    -2.510000000    -2.381000000
O     0.251000000    -3.352000000    -1.825000000
