17
-92.59642
C     0.599000000    -1.306000000     0.281000000
H     1.147000000    -2.210000000     0.532000000
C     1.238000000    -0.089000000     0.341000000
H     2.190000000    -0.012000000     0.860000000
C     0.528000000     1.100000000     0.189000000
C     1.282000000     2.360000000     0.356000000
H     0.792000000     2.995000000     1.097000000
H     2.360000000     2.270000000     0.504000000
H     1.143000000     2.807000000    -0.631000000
C    -0.780000000     1.044000000    -0.181000000
H    -1.326000000     1.983000000    -0.138000000
C    -1.391000000    -0.140000000    -0.418000000
H    -2.441000000    -0.217000000    -0.687000000
C    -0.705000000    -1.378000000    -0.242000000
C    -1.320000000    -2.699000000    -0.591000000
O    -2.498000000    -2.736000000    -1.036000000
O    -0.811000000    -3.768000000    -0.232000000
