17
-98.76065
C    -0.419000000    -1.408000000     0.025000000
H    -0.647000000    -2.470000000     0.018000000
C     0.803000000    -0.931000000     0.447000000
H     1.585000000    -1.625000000     0.742000000
C     1.080000000     0.415000000     0.519000000
C     2.545000000     0.875000000     0.592000000
H     2.888000000     1.002000000     1.621000000
H     3.161000000     0.100000000     0.132000000
H     2.664000000     1.767000000    -0.026000000
C     0.053000000     1.297000000     0.137000000
H     0.261000000     2.358000000     0.252000000
C    -1.197000000     0.898000000    -0.313000000
H    -1.978000000     1.605000000    -0.584000000
C    -1.424000000    -0.523000000    -0.410000000
C    -2.749000000    -0.993000000    -0.933000000
O    -3.678000000    -0.189000000    -1.000000000
O    -2.943000000    -2.172000000    -1.219000000
