17
-95.85519
C    -0.174000000    -1.473000000    -0.073000000
H    -0.158000000    -2.558000000    -0.016000000
C     1.045000000    -0.744000000     0.074000000
H     1.996000000    -1.270000000     0.100000000
C     1.064000000     0.624000000     0.193000000
C     2.349000000     1.356000000     0.501000000
H     2.959000000     0.700000000     1.125000000
H     2.990000000     1.356000000    -0.383000000
H     2.096000000     2.289000000     1.010000000
C    -0.097000000     1.309000000     0.175000000
H    -0.130000000     2.391000000     0.271000000
C    -1.292000000     0.631000000    -0.180000000
H    -2.191000000     1.218000000    -0.349000000
C    -1.388000000    -0.761000000    -0.240000000
C    -2.679000000    -1.521000000    -0.566000000
O    -3.709000000    -0.826000000    -0.844000000
O    -2.675000000    -2.720000000    -0.800000000
