17
-97.05259
C    -1.379000000    -0.200000000    -0.497000000
H    -2.439000000    -0.386000000    -0.652000000
C    -1.079000000     0.576000000     0.632000000
H    -1.901000000     0.982000000     1.217000000
C     0.287000000     0.624000000     1.008000000
C     0.736000000     1.508000000     2.199000000
H     0.444000000     2.530000000     1.951000000
H     0.421000000     1.109000000     3.166000000
H     1.827000000     1.543000000     2.193000000
C     1.261000000    -0.059000000     0.254000000
H     2.312000000    -0.005000000     0.526000000
C     0.883000000    -0.780000000    -0.825000000
H     1.709000000    -1.178000000    -1.410000000
C    -0.407000000    -0.833000000    -1.272000000
C    -0.778000000    -1.610000000    -2.496000000
O     0.021000000    -2.351000000    -3.089000000
O    -1.923000000    -1.468000000    -2.900000000
