17
-94.06170
C    -1.393000000    -0.098000000    -0.526000000
H    -2.412000000    -0.054000000    -0.901000000
C    -1.045000000     0.259000000     0.782000000
H    -1.735000000     0.558000000     1.567000000
C     0.331000000     0.406000000     1.132000000
C     0.745000000     0.868000000     2.455000000
H     1.589000000     0.333000000     2.895000000
H     1.158000000     1.877000000     2.399000000
H    -0.061000000     0.904000000     3.191000000
C     1.272000000    -0.035000000     0.271000000
H     2.301000000     0.016000000     0.617000000
C     0.914000000    -0.503000000    -1.038000000
H     1.644000000    -0.999000000    -1.673000000
C    -0.424000000    -0.533000000    -1.428000000
C    -0.883000000    -0.929000000    -2.838000000
O    -0.102000000    -1.557000000    -3.519000000
O    -1.901000000    -0.518000000    -3.379000000
