17
-95.48778
C    -1.443000000    -0.234000000    -0.449000000
H    -2.482000000    -0.494000000    -0.635000000
C    -1.060000000     0.465000000     0.686000000
H    -1.796000000     0.799000000     1.414000000
C     0.286000000     0.651000000     0.991000000
C     0.779000000     1.347000000     2.183000000
H     0.226000000     0.936000000     3.031000000
H     1.793000000     1.099000000     2.504000000
H     0.562000000     2.417000000     2.167000000
C     1.262000000     0.255000000     0.087000000
H     2.294000000     0.394000000     0.400000000
C     0.897000000    -0.497000000    -1.025000000
H     1.628000000    -1.094000000    -1.564000000
C    -0.424000000    -0.750000000    -1.308000000
C    -0.778000000    -1.537000000    -2.519000000
O     0.131000000    -1.765000000    -3.305000000
O    -1.879000000    -1.997000000    -2.666000000
