17
-102.91371
C    -0.054000000     0.602000000    -1.300000000
H    -0.013000000     1.155000000    -2.235000000
C    -0.168000000     1.258000000    -0.106000000
H    -0.356000000     2.325000000    -0.020000000
C    -0.080000000     0.539000000     1.128000000
C    -0.179000000     1.377000000     2.400000000
H    -1.205000000     1.686000000     2.611000000
H     0.192000000     0.867000000     3.291000000
H     0.375000000     2.313000000     2.299000000
C     0.130000000    -0.837000000     1.042000000
H     0.153000000    -1.499000000     1.904000000
C     0.254000000    -1.533000000    -0.191000000
H     0.468000000    -2.598000000    -0.206000000
C     0.174000000    -0.771000000    -1.396000000
C     0.142000000    -1.465000000    -2.728000000
O    -0.003000000    -2.685000000    -2.726000000
O     0.162000000    -0.739000000    -3.763000000
