17
-94.85322
C    -0.448000000    -1.244000000     0.658000000
H    -0.961000000    -2.148000000     0.976000000
C    -1.224000000    -0.567000000    -0.292000000
H    -2.190000000    -0.934000000    -0.630000000
C    -0.724000000     0.626000000    -0.728000000
C    -1.352000000     1.492000000    -1.748000000
H    -2.416000000     1.254000000    -1.821000000
H    -1.311000000     2.558000000    -1.515000000
H    -0.881000000     1.432000000    -2.732000000
C     0.543000000     1.031000000    -0.387000000
H     0.923000000     1.987000000    -0.739000000
C     1.352000000     0.327000000     0.474000000
H     2.287000000     0.795000000     0.768000000
C     0.829000000    -0.835000000     1.033000000
C     1.650000000    -1.738000000     1.925000000
O     2.854000000    -1.540000000     2.027000000
O     1.076000000    -2.492000000     2.732000000
