17
-85.72454
C    -1.183000000     0.372000000    -0.742000000
H    -1.911000000     0.738000000    -1.462000000
C    -0.568000000     1.224000000     0.212000000
H    -0.842000000     2.265000000     0.060000000
C     0.526000000     0.735000000     0.848000000
C     1.386000000     1.613000000     1.602000000
H     0.744000000     2.428000000     1.945000000
H     1.791000000     1.240000000     2.545000000
H     2.147000000     2.001000000     0.923000000
C     0.926000000    -0.529000000     0.632000000
H     1.867000000    -0.794000000     1.109000000
C     0.275000000    -1.423000000    -0.141000000
H     0.652000000    -2.422000000    -0.347000000
C    -0.861000000    -1.014000000    -0.845000000
C    -1.468000000    -1.905000000    -1.879000000
O    -1.006000000    -3.002000000    -1.958000000
O    -2.478000000    -1.535000000    -2.504000000
