17
-88.28867
C    -0.684000000     0.661000000    -1.221000000
H    -1.096000000     1.199000000    -2.071000000
C    -0.130000000     1.322000000    -0.081000000
H    -0.022000000     2.404000000    -0.096000000
C     0.496000000     0.601000000     0.966000000
C     1.241000000     1.289000000     2.074000000
H     0.603000000     1.642000000     2.887000000
H     1.896000000     0.534000000     2.513000000
H     1.713000000     2.234000000     1.797000000
C     0.437000000    -0.765000000     0.954000000
H     0.939000000    -1.343000000     1.726000000
C    -0.153000000    -1.469000000    -0.088000000
H    -0.218000000    -2.554000000    -0.096000000
C    -0.690000000    -0.767000000    -1.155000000
C    -1.325000000    -1.482000000    -2.350000000
O    -1.629000000    -2.606000000    -2.338000000
O    -1.376000000    -0.908000000    -3.425000000
