17
-93.25153
C     1.101000000    -0.964000000     0.095000000
H     1.961000000    -1.581000000     0.344000000
C     1.165000000     0.481000000     0.192000000
H     2.120000000     0.940000000     0.431000000
C     0.067000000     1.233000000     0.048000000
C     0.236000000     2.742000000     0.089000000
H     1.289000000     2.959000000    -0.106000000
H    -0.446000000     3.231000000    -0.610000000
H     0.145000000     3.097000000     1.117000000
C    -1.133000000     0.624000000    -0.189000000
H    -2.034000000     1.189000000    -0.412000000
C    -1.232000000    -0.792000000    -0.176000000
H    -2.175000000    -1.302000000    -0.357000000
C    -0.125000000    -1.572000000    -0.032000000
C    -0.280000000    -3.034000000    -0.035000000
O    -1.331000000    -3.451000000    -0.563000000
O     0.672000000    -3.794000000     0.163000000
