17
-80.96888
C     0.740000000    -0.671000000    -1.070000000
H     1.516000000    -1.070000000    -1.719000000
C     0.940000000     0.607000000    -0.603000000
H     1.659000000     1.244000000    -1.112000000
C     0.202000000     1.191000000     0.375000000
C     0.384000000     2.531000000     0.817000000
H     0.563000000     2.597000000     1.892000000
H     1.280000000     2.936000000     0.342000000
H    -0.489000000     3.121000000     0.530000000
C    -0.835000000     0.498000000     0.845000000
H    -1.492000000     0.890000000     1.617000000
C    -1.105000000    -0.816000000     0.374000000
H    -1.929000000    -1.372000000     0.814000000
C    -0.223000000    -1.489000000    -0.517000000
C    -0.298000000    -2.996000000    -0.743000000
O    -1.403000000    -3.493000000    -0.543000000
O     0.495000000    -3.713000000    -1.298000000
