17
-94.83732
C     1.189000000    -0.864000000    -0.311000000
H     2.112000000    -1.393000000    -0.532000000
C     1.222000000     0.494000000    -0.058000000
H     2.158000000     1.046000000    -0.083000000
C     0.040000000     1.184000000     0.281000000
C     0.107000000     2.636000000     0.633000000
H    -0.106000000     3.320000000    -0.191000000
H    -0.526000000     2.868000000     1.492000000
H     1.091000000     2.890000000     1.031000000
C    -1.189000000     0.570000000     0.312000000
H    -2.082000000     1.117000000     0.601000000
C    -1.243000000    -0.808000000    -0.010000000
H    -2.158000000    -1.384000000    -0.126000000
C    -0.074000000    -1.514000000    -0.325000000
C    -0.153000000    -3.021000000    -0.698000000
O    -1.218000000    -3.512000000    -0.985000000
O     0.834000000    -3.623000000    -1.024000000
