17
-91.45574
C     1.238000000    -0.096000000     0.881000000
H     2.001000000    -0.265000000     1.635000000
C    -0.020000000     0.484000000     1.173000000
H    -0.209000000     0.922000000     2.150000000
C    -0.972000000     0.685000000     0.230000000
C    -2.194000000     1.542000000     0.540000000
H    -3.095000000     0.926000000     0.510000000
H    -2.165000000     1.945000000     1.555000000
H    -2.365000000     2.392000000    -0.124000000
C    -0.844000000     0.046000000    -1.007000000
H    -1.680000000     0.038000000    -1.702000000
C     0.286000000    -0.724000000    -1.297000000
H     0.281000000    -1.410000000    -2.141000000
C     1.276000000    -0.795000000    -0.350000000
C     2.520000000    -1.615000000    -0.625000000
O     2.830000000    -1.973000000    -1.741000000
O     3.112000000    -2.100000000     0.309000000
