17
-91.87789
C    -0.072000000     0.177000000    -1.476000000
H     0.047000000     0.440000000    -2.524000000
C     0.223000000     1.163000000    -0.558000000
H     0.364000000     2.186000000    -0.898000000
C     0.232000000     0.898000000     0.786000000
C     0.652000000     1.976000000     1.768000000
H     1.060000000     2.842000000     1.242000000
H    -0.133000000     2.233000000     2.482000000
H     1.432000000     1.494000000     2.361000000
C    -0.039000000    -0.359000000     1.274000000
H     0.003000000    -0.703000000     2.304000000
C    -0.472000000    -1.315000000     0.365000000
H    -0.718000000    -2.335000000     0.649000000
C    -0.368000000    -1.053000000    -1.000000000
C    -0.647000000    -2.223000000    -1.963000000
O    -0.438000000    -3.415000000    -1.732000000
O    -1.122000000    -2.012000000    -3.079000000
