17
-97.91520
C    -1.058000000     0.349000000    -1.016000000
H    -1.676000000     0.729000000    -1.826000000
C    -0.423000000     1.246000000    -0.127000000
H    -0.447000000     2.327000000    -0.244000000
C     0.399000000     0.748000000     0.850000000
C     1.143000000     1.682000000     1.814000000
H     1.195000000     2.730000000     1.511000000
H     0.735000000     1.674000000     2.826000000
H     2.207000000     1.455000000     1.916000000
C     0.616000000    -0.628000000     1.009000000
H     1.361000000    -1.003000000     1.707000000
C     0.126000000    -1.449000000     0.045000000
H     0.323000000    -2.517000000     0.002000000
C    -0.725000000    -0.993000000    -1.008000000
C    -1.150000000    -1.878000000    -2.159000000
O    -1.188000000    -3.099000000    -2.049000000
O    -1.434000000    -1.378000000    -3.249000000
