17
-98.02514
C    -1.180000000    -0.195000000    -0.875000000
H    -2.091000000    -0.235000000    -1.467000000
C    -0.803000000     1.006000000    -0.216000000
H    -1.287000000     1.968000000    -0.363000000
C     0.337000000     1.003000000     0.555000000
C     0.761000000     2.310000000     1.195000000
H     1.834000000     2.233000000     1.382000000
H     0.509000000     3.138000000     0.529000000
H     0.289000000     2.449000000     2.170000000
C     1.211000000    -0.074000000     0.611000000
H     2.182000000     0.060000000     1.082000000
C     0.796000000    -1.293000000     0.023000000
H     1.356000000    -2.224000000     0.060000000
C    -0.401000000    -1.347000000    -0.686000000
C    -0.952000000    -2.596000000    -1.272000000
O    -0.504000000    -3.675000000    -0.898000000
O    -2.057000000    -2.525000000    -1.831000000
