17
-93.45722
C     0.658000000     0.464000000    -1.282000000
H     1.053000000     0.797000000    -2.239000000
C    -0.430000000     1.068000000    -0.710000000
H    -0.849000000     1.936000000    -1.213000000
C    -1.015000000     0.509000000     0.422000000
C    -2.195000000     1.163000000     1.082000000
H    -2.987000000     0.427000000     1.240000000
H    -1.970000000     1.363000000     2.132000000
H    -2.703000000     1.986000000     0.574000000
C    -0.454000000    -0.543000000     1.142000000
H    -0.923000000    -0.903000000     2.054000000
C     0.727000000    -1.118000000     0.602000000
H     1.237000000    -1.984000000     1.018000000
C     1.245000000    -0.663000000    -0.650000000
C     2.515000000    -1.325000000    -1.253000000
O     3.052000000    -2.261000000    -0.680000000
O     3.036000000    -0.912000000    -2.241000000
