17
-95.39503
C     0.231000000     0.647000000    -1.309000000
H     0.300000000     1.247000000    -2.212000000
C    -1.024000000     0.717000000    -0.622000000
H    -1.885000000     1.259000000    -1.006000000
C    -1.070000000     0.072000000     0.627000000
C    -2.343000000    -0.046000000     1.440000000
H    -3.045000000    -0.824000000     1.132000000
H    -2.007000000    -0.271000000     2.454000000
H    -2.870000000     0.906000000     1.346000000
C     0.093000000    -0.536000000     1.134000000
H     0.021000000    -1.064000000     2.081000000
C     1.245000000    -0.638000000     0.356000000
H     2.114000000    -1.073000000     0.844000000
C     1.315000000    -0.092000000    -0.909000000
C     2.653000000    -0.091000000    -1.619000000
O     3.551000000    -0.640000000    -1.047000000
O     2.725000000     0.428000000    -2.689000000
