17
-89.79313
C     0.579000000     0.726000000    -1.175000000
H     0.829000000     1.234000000    -2.103000000
C    -0.784000000     0.450000000    -0.904000000
H    -1.585000000     0.665000000    -1.607000000
C    -1.184000000    -0.208000000     0.205000000
C    -2.705000000    -0.205000000     0.576000000
H    -3.116000000    -0.859000000     1.348000000
H    -2.848000000     0.875000000     0.661000000
H    -3.285000000    -0.522000000    -0.293000000
C    -0.233000000    -0.617000000     1.156000000
H    -0.507000000    -1.059000000     2.110000000
C     1.132000000    -0.478000000     0.810000000
H     1.790000000    -0.929000000     1.549000000
C     1.552000000     0.189000000    -0.353000000
C     3.046000000     0.258000000    -0.596000000
O     3.782000000    -0.375000000     0.147000000
O     3.540000000     0.850000000    -1.527000000
