17
-89.11008
C     1.063000000    -1.022000000    -0.124000000
H     1.669000000    -1.891000000    -0.368000000
C    -0.336000000    -1.166000000    -0.302000000
H    -0.705000000    -2.156000000    -0.560000000
C    -1.244000000    -0.171000000    -0.173000000
C    -2.704000000    -0.444000000    -0.359000000
H    -3.197000000     0.408000000    -0.831000000
H    -2.965000000    -1.270000000    -1.024000000
H    -3.267000000    -0.517000000     0.574000000
C    -0.735000000     1.078000000     0.180000000
H    -1.412000000     1.903000000     0.382000000
C     0.654000000     1.275000000     0.395000000
H     1.111000000     2.251000000     0.538000000
C     1.599000000     0.227000000     0.234000000
C     3.102000000     0.446000000     0.390000000
O     3.473000000     1.516000000     0.678000000
O     3.887000000    -0.468000000     0.366000000
