17
-89.02318
C     1.053000000    -1.026000000    -0.322000000
H     1.717000000    -1.862000000    -0.525000000
C    -0.320000000    -1.137000000    -0.589000000
H    -0.715000000    -2.046000000    -1.036000000
C    -1.215000000    -0.117000000    -0.254000000
C    -2.749000000    -0.088000000    -0.527000000
H    -3.170000000    -0.896000000     0.075000000
H    -3.335000000     0.774000000    -0.201000000
H    -2.884000000    -0.275000000    -1.594000000
C    -0.691000000     0.996000000     0.475000000
H    -1.322000000     1.821000000     0.797000000
C     0.665000000     1.129000000     0.680000000
H     1.192000000     1.995000000     1.072000000
C     1.526000000     0.120000000     0.253000000
C     3.001000000     0.157000000     0.555000000
O     3.495000000     1.020000000     1.211000000
O     3.746000000    -0.565000000    -0.062000000
