17
-93.64208
C     1.305000000     0.221000000     0.803000000
H     2.132000000     0.519000000     1.442000000
C     0.145000000     1.059000000     0.857000000
H     0.187000000     1.941000000     1.490000000
C    -0.940000000     0.792000000     0.039000000
C    -2.280000000     1.548000000    -0.025000000
H    -3.105000000     0.876000000     0.220000000
H    -2.234000000     2.363000000     0.700000000
H    -2.361000000     1.946000000    -1.039000000
C    -0.947000000    -0.331000000    -0.821000000
H    -1.924000000    -0.607000000    -1.210000000
C     0.173000000    -1.117000000    -0.830000000
H     0.048000000    -2.041000000    -1.389000000
C     1.344000000    -0.855000000    -0.053000000
C     2.479000000    -1.845000000    -0.008000000
O     2.384000000    -2.993000000    -0.485000000
O     3.597000000    -1.475000000     0.312000000
