17
-95.51214
C     1.122000000    -0.809000000     0.355000000
H     1.917000000    -1.548000000     0.410000000
C     0.023000000    -1.180000000    -0.399000000
H    -0.089000000    -2.204000000    -0.746000000
C    -1.035000000    -0.283000000    -0.584000000
C    -2.296000000    -0.830000000    -1.186000000
H    -2.621000000    -1.706000000    -0.621000000
H    -3.102000000    -0.149000000    -1.469000000
H    -2.028000000    -1.191000000    -2.181000000
C    -0.860000000     1.067000000    -0.284000000
H    -1.585000000     1.788000000    -0.652000000
C     0.297000000     1.419000000     0.414000000
H     0.393000000     2.416000000     0.836000000
C     1.304000000     0.538000000     0.675000000
C     2.516000000     0.785000000     1.622000000
O     2.536000000     1.825000000     2.310000000
O     3.503000000     0.070000000     1.508000000
