17
-97.95308
C     0.965000000    -1.137000000     0.055000000
H     1.553000000    -2.049000000    -0.007000000
C    -0.345000000    -1.127000000    -0.486000000
H    -0.819000000    -1.992000000    -0.943000000
C    -1.142000000    -0.028000000    -0.389000000
C    -2.408000000    -0.006000000    -1.207000000
H    -2.423000000    -0.709000000    -2.043000000
H    -3.355000000    -0.178000000    -0.692000000
H    -2.510000000     1.008000000    -1.599000000
C    -0.744000000     1.053000000     0.418000000
H    -1.435000000     1.886000000     0.512000000
C     0.539000000     1.032000000     0.900000000
H     0.876000000     1.900000000     1.460000000
C     1.458000000     0.048000000     0.640000000
C     2.915000000     0.100000000     1.022000000
O     3.339000000     1.139000000     1.495000000
O     3.528000000    -0.934000000     0.870000000
