17
-95.40561
C     1.125000000     0.058000000    -1.002000000
H     1.870000000     0.151000000    -1.788000000
C     0.019000000     0.923000000    -0.904000000
H     0.001000000     1.733000000    -1.629000000
C    -0.932000000     0.829000000     0.109000000
C    -2.089000000     1.812000000     0.178000000
H    -2.391000000     1.934000000     1.220000000
H    -1.717000000     2.759000000    -0.218000000
H    -2.891000000     1.477000000    -0.484000000
C    -0.904000000    -0.316000000     0.905000000
H    -1.659000000    -0.458000000     1.674000000
C     0.172000000    -1.216000000     0.747000000
H     0.179000000    -2.089000000     1.395000000
C     1.226000000    -1.068000000    -0.149000000
C     2.317000000    -1.946000000    -0.058000000
O     2.371000000    -2.863000000     0.793000000
O     3.298000000    -1.719000000    -0.789000000
