17
-99.24628
C     0.661000000    -0.520000000    -1.217000000
H     1.074000000    -0.893000000    -2.151000000
C    -0.400000000     0.403000000    -1.226000000
H    -0.865000000     0.767000000    -2.139000000
C    -0.935000000     0.798000000     0.059000000
C    -2.101000000     1.723000000     0.012000000
H    -2.758000000     1.620000000     0.878000000
H    -1.741000000     2.753000000    -0.023000000
H    -2.709000000     1.546000000    -0.877000000
C    -0.356000000     0.380000000     1.221000000
H    -0.707000000     0.686000000     2.203000000
C     0.697000000    -0.514000000     1.213000000
H     1.102000000    -0.755000000     2.193000000
C     1.252000000    -0.988000000    -0.006000000
C     2.329000000    -2.026000000    -0.046000000
O     2.849000000    -2.406000000     0.995000000
O     2.611000000    -2.581000000    -1.090000000
