17
-92.94648
C     1.103000000     0.392000000    -0.969000000
H     1.727000000     0.729000000    -1.792000000
C    -0.158000000     0.946000000    -0.915000000
H    -0.396000000     1.651000000    -1.708000000
C    -1.141000000     0.455000000    -0.040000000
C    -2.482000000     1.087000000     0.006000000
H    -3.077000000     0.918000000    -0.895000000
H    -2.989000000     0.591000000     0.836000000
H    -2.451000000     2.135000000     0.311000000
C    -0.805000000    -0.576000000     0.851000000
H    -1.523000000    -0.950000000     1.576000000
C     0.464000000    -1.051000000     0.946000000
H     0.736000000    -1.796000000     1.690000000
C     1.456000000    -0.579000000     0.046000000
C     2.809000000    -1.150000000     0.047000000
O     3.131000000    -2.030000000     0.809000000
O     3.590000000    -0.779000000    -0.804000000
