17
-91.55667
C     0.684000000    -0.003000000    -1.287000000
H     1.110000000    -0.052000000    -2.286000000
C    -0.514000000     0.605000000    -1.080000000
H    -0.866000000     1.204000000    -1.916000000
C    -1.091000000     0.642000000     0.204000000
C    -2.393000000     1.252000000     0.513000000
H    -2.789000000     0.914000000     1.473000000
H    -2.294000000     2.340000000     0.515000000
H    -3.160000000     1.014000000    -0.227000000
C    -0.439000000    -0.076000000     1.225000000
H    -0.821000000     0.064000000     2.233000000
C     0.732000000    -0.820000000     0.931000000
H     1.217000000    -1.452000000     1.670000000
C     1.363000000    -0.785000000    -0.331000000
C     2.735000000    -1.377000000    -0.494000000
O     3.237000000    -2.002000000     0.424000000
O     3.283000000    -1.472000000    -1.565000000
