17
-85.05493
C     0.627000000    -0.886000000    -1.045000000
H     0.948000000    -1.408000000    -1.943000000
C    -0.663000000    -0.286000000    -1.130000000
H    -1.270000000    -0.330000000    -2.031000000
C    -1.134000000     0.467000000    -0.064000000
C    -2.408000000     1.273000000    -0.140000000
H    -2.821000000     1.494000000    -1.126000000
H    -3.136000000     0.734000000     0.470000000
H    -2.145000000     2.270000000     0.222000000
C    -0.403000000     0.483000000     1.067000000
H    -0.719000000     1.156000000     1.860000000
C     0.826000000    -0.120000000     1.144000000
H     1.423000000     0.103000000     2.025000000
C     1.363000000    -0.809000000     0.122000000
C     2.786000000    -1.231000000     0.179000000
O     3.386000000    -1.380000000     1.215000000
O     3.346000000    -1.526000000    -0.827000000
