17
-94.23155
C     0.566000000    -0.594000000    -1.327000000
H     0.779000000    -1.194000000    -2.208000000
C    -0.795000000    -0.420000000    -0.966000000
H    -1.594000000    -0.673000000    -1.658000000
C    -1.187000000     0.068000000     0.293000000
C    -2.668000000     0.479000000     0.611000000
H    -2.822000000     1.558000000     0.548000000
H    -3.341000000    -0.101000000    -0.025000000
H    -2.882000000     0.141000000     1.626000000
C    -0.234000000     0.293000000     1.231000000
H    -0.532000000     0.693000000     2.196000000
C     1.114000000     0.137000000     0.899000000
H     1.820000000     0.481000000     1.651000000
C     1.521000000    -0.234000000    -0.396000000
C     3.017000000    -0.167000000    -0.797000000
O     3.767000000     0.286000000     0.080000000
O     3.464000000    -0.747000000    -1.756000000
