17
-95.71373
C     0.195000000    -0.194000000    -1.447000000
H     0.146000000    -0.460000000    -2.500000000
C    -0.928000000    -0.546000000    -0.713000000
H    -1.782000000    -1.042000000    -1.167000000
C    -0.930000000    -0.397000000     0.699000000
C    -2.160000000    -0.777000000     1.470000000
H    -2.035000000    -1.800000000     1.830000000
H    -2.249000000    -0.059000000     2.288000000
H    -3.088000000    -0.670000000     0.905000000
C     0.114000000     0.196000000     1.373000000
H     0.149000000     0.351000000     2.448000000
C     1.201000000     0.611000000     0.522000000
H     2.054000000     1.050000000     1.034000000
C     1.243000000     0.450000000    -0.819000000
C     2.393000000     0.942000000    -1.714000000
O     3.472000000     1.304000000    -1.291000000
O     2.197000000     1.038000000    -2.911000000
