17
-98.86250
C    -0.123000000     0.314000000    -1.459000000
H    -0.331000000     0.491000000    -2.511000000
C    -1.103000000    -0.258000000    -0.654000000
H    -2.019000000    -0.520000000    -1.178000000
C    -0.901000000    -0.554000000     0.676000000
C    -2.065000000    -1.046000000     1.542000000
H    -1.775000000    -1.963000000     2.059000000
H    -2.219000000    -0.232000000     2.254000000
H    -2.982000000    -1.213000000     0.973000000
C     0.359000000    -0.255000000     1.222000000
H     0.613000000    -0.544000000     2.239000000
C     1.395000000     0.279000000     0.433000000
H     2.336000000     0.477000000     0.938000000
C     1.149000000     0.640000000    -0.894000000
C     2.254000000     1.341000000    -1.672000000
O     3.408000000     1.083000000    -1.305000000
O     2.012000000     1.952000000    -2.656000000
