17
-87.93252
C    -0.130000000     0.985000000    -1.064000000
H    -0.394000000     1.641000000    -1.890000000
C    -1.158000000     0.314000000    -0.416000000
H    -2.193000000     0.414000000    -0.735000000
C    -0.868000000    -0.444000000     0.700000000
C    -2.058000000    -1.339000000     1.173000000
H    -2.087000000    -2.296000000     0.647000000
H    -1.938000000    -1.564000000     2.235000000
H    -3.060000000    -0.963000000     0.958000000
C     0.438000000    -0.701000000     1.137000000
H     0.612000000    -1.472000000     1.883000000
C     1.454000000    -0.029000000     0.430000000
H     2.493000000    -0.117000000     0.739000000
C     1.191000000     0.789000000    -0.637000000
C     2.258000000     1.462000000    -1.409000000
O     3.395000000     1.021000000    -1.457000000
O     2.042000000     2.292000000    -2.302000000
