17
-94.05881
C     0.004000000    -0.034000000    -1.482000000
H    -0.221000000    -0.083000000    -2.544000000
C    -0.819000000    -0.745000000    -0.661000000
H    -1.588000000    -1.389000000    -1.079000000
C    -0.700000000    -0.714000000     0.761000000
C    -1.661000000    -1.432000000     1.652000000
H    -2.626000000    -0.922000000     1.641000000
H    -1.797000000    -2.457000000     1.302000000
H    -1.375000000    -1.481000000     2.705000000
C     0.253000000     0.094000000     1.253000000
H     0.492000000     0.130000000     2.313000000
C     1.098000000     0.901000000     0.420000000
H     1.676000000     1.651000000     0.953000000
C     0.950000000     0.847000000    -0.964000000
C     1.851000000     1.602000000    -1.870000000
O     2.956000000     2.018000000    -1.444000000
O     1.511000000     2.013000000    -2.954000000
