17
-96.38325
C    -0.116000000     0.507000000    -1.338000000
H    -0.251000000     0.698000000    -2.400000000
C    -0.796000000    -0.608000000    -0.833000000
H    -1.394000000    -1.221000000    -1.503000000
C    -0.633000000    -0.987000000     0.467000000
C    -1.182000000    -2.188000000     0.968000000
H    -0.568000000    -3.084000000     1.080000000
H    -1.704000000    -1.959000000     1.899000000
H    -1.898000000    -2.584000000     0.245000000
C     0.193000000    -0.177000000     1.270000000
H     0.404000000    -0.582000000     2.257000000
C     0.829000000     0.981000000     0.790000000
H     1.362000000     1.614000000     1.495000000
C     0.716000000     1.328000000    -0.558000000
C     1.477000000     2.482000000    -1.120000000
O     2.226000000     3.135000000    -0.398000000
O     1.335000000     2.653000000    -2.318000000
