17
-95.89661
C    -0.948000000     1.162000000    -0.185000000
H    -1.717000000     1.926000000    -0.256000000
C    -1.290000000    -0.271000000    -0.132000000
H    -2.331000000    -0.562000000    -0.246000000
C    -0.305000000    -1.199000000     0.052000000
C    -0.707000000    -2.668000000     0.243000000
H    -0.300000000    -3.363000000    -0.493000000
H    -0.332000000    -3.045000000     1.197000000
H    -1.787000000    -2.799000000     0.341000000
C     0.974000000    -0.782000000     0.156000000
H     1.731000000    -1.551000000     0.293000000
C     1.376000000     0.595000000     0.059000000
H     2.434000000     0.838000000     0.103000000
C     0.402000000     1.539000000    -0.114000000
C     0.823000000     3.023000000    -0.261000000
O     1.981000000     3.280000000    -0.126000000
O    -0.007000000     3.882000000    -0.627000000
