17
-94.49942
C    -0.289000000     1.356000000    -0.636000000
H    -0.722000000     2.309000000    -0.929000000
C    -1.113000000     0.318000000    -0.352000000
H    -2.161000000     0.557000000    -0.508000000
C    -0.794000000    -0.953000000     0.146000000
C    -1.802000000    -2.037000000     0.319000000
H    -2.524000000    -1.944000000    -0.495000000
H    -1.375000000    -3.041000000     0.268000000
H    -2.379000000    -2.035000000     1.246000000
C     0.556000000    -1.116000000     0.541000000
H     0.771000000    -1.999000000     1.138000000
C     1.492000000    -0.130000000     0.205000000
H     2.538000000    -0.371000000     0.372000000
C     1.070000000     1.137000000    -0.290000000
C     2.011000000     2.348000000    -0.374000000
O     3.079000000     2.210000000     0.198000000
O     1.641000000     3.399000000    -0.850000000
