17
-88.74122
C    -0.257000000     1.337000000     0.561000000
H    -0.451000000     2.328000000     0.964000000
C    -1.239000000     0.349000000     0.457000000
H    -2.240000000     0.576000000     0.815000000
C    -0.821000000    -0.918000000    -0.118000000
C    -1.879000000    -1.962000000    -0.285000000
H    -1.787000000    -2.596000000     0.600000000
H    -2.864000000    -1.491000000    -0.241000000
H    -1.668000000    -2.663000000    -1.094000000
C     0.442000000    -1.156000000    -0.501000000
H     0.699000000    -2.100000000    -0.975000000
C     1.373000000    -0.106000000    -0.386000000
H     2.388000000    -0.312000000    -0.715000000
C     1.083000000     1.153000000     0.206000000
C     2.109000000     2.238000000     0.217000000
O     3.253000000     1.904000000     0.260000000
O     1.859000000     3.413000000     0.232000000
