17
-91.67977
C     1.276000000     0.231000000     0.802000000
H     2.102000000     0.519000000     1.447000000
C     0.118000000     1.028000000     0.798000000
H     0.178000000     1.945000000     1.378000000
C    -1.080000000     0.670000000     0.142000000
C    -2.347000000     1.517000000     0.141000000
H    -2.115000000     2.364000000     0.791000000
H    -2.597000000     1.949000000    -0.830000000
H    -3.136000000     0.877000000     0.545000000
C    -1.008000000    -0.497000000    -0.579000000
H    -1.838000000    -0.772000000    -1.224000000
C     0.176000000    -1.230000000    -0.781000000
H     0.098000000    -2.074000000    -1.462000000
C     1.354000000    -0.891000000    -0.047000000
C     2.615000000    -1.722000000    -0.235000000
O     2.544000000    -2.712000000    -0.906000000
O     3.660000000    -1.201000000     0.018000000
