17
-96.99540
C     0.435000000     1.272000000     0.693000000
H     0.623000000     2.194000000     1.238000000
C    -0.861000000     0.976000000     0.259000000
H    -1.664000000     1.700000000     0.365000000
C    -1.187000000    -0.244000000    -0.370000000
C    -2.497000000    -0.642000000    -1.049000000
H    -2.411000000    -0.503000000    -2.129000000
H    -2.727000000    -1.691000000    -0.853000000
H    -3.292000000    -0.018000000    -0.636000000
C    -0.183000000    -1.157000000    -0.472000000
H    -0.334000000    -1.998000000    -1.143000000
C     1.111000000    -0.920000000     0.056000000
H     1.973000000    -1.539000000    -0.177000000
C     1.424000000     0.319000000     0.657000000
C     2.804000000     0.636000000     1.105000000
O     3.729000000    -0.111000000     0.782000000
O     3.061000000     1.731000000     1.675000000
