17
-91.41807
C    -0.371000000     0.540000000     1.289000000
H    -0.646000000     0.767000000     2.316000000
C    -1.283000000     0.109000000     0.302000000
H    -2.340000000     0.007000000     0.535000000
C    -0.774000000    -0.436000000    -0.865000000
C    -1.746000000    -1.136000000    -1.733000000
H    -2.407000000    -0.413000000    -2.215000000
H    -1.272000000    -1.748000000    -2.503000000
H    -2.364000000    -1.836000000    -1.166000000
C     0.571000000    -0.430000000    -1.138000000
H     0.873000000    -0.817000000    -2.108000000
C     1.465000000     0.208000000    -0.234000000
H     2.517000000     0.322000000    -0.484000000
C     1.022000000     0.660000000     0.982000000
C     1.974000000     1.254000000     2.057000000
O     3.081000000     1.624000000     1.758000000
O     1.696000000     1.318000000     3.213000000
