17
-88.85207
C     1.370000000     0.498000000    -0.231000000
H     2.345000000     0.852000000    -0.556000000
C     0.278000000     0.539000000    -1.119000000
H     0.557000000     0.998000000    -2.064000000
C    -0.956000000     0.046000000    -0.833000000
C    -2.099000000    -0.092000000    -1.839000000
H    -1.662000000     0.168000000    -2.805000000
H    -2.478000000    -1.112000000    -1.756000000
H    -2.795000000     0.734000000    -1.676000000
C    -1.116000000    -0.458000000     0.478000000
H    -2.081000000    -0.933000000     0.632000000
C    -0.119000000    -0.371000000     1.443000000
H    -0.214000000    -0.914000000     2.380000000
C     1.142000000     0.104000000     1.089000000
C     2.279000000     0.131000000     2.059000000
O     2.119000000    -0.282000000     3.194000000
O     3.422000000     0.091000000     1.600000000
