17
-98.50566
C     0.326000000    -0.284000000     1.430000000
H     0.544000000    -0.292000000     2.495000000
C    -0.828000000     0.305000000     0.988000000
H    -1.644000000     0.582000000     1.650000000
C    -1.099000000     0.380000000    -0.385000000
C    -2.404000000     0.987000000    -0.922000000
H    -2.268000000     2.067000000    -0.843000000
H    -2.649000000     0.599000000    -1.913000000
H    -3.184000000     0.714000000    -0.209000000
C    -0.056000000     0.143000000    -1.299000000
H    -0.255000000     0.297000000    -2.357000000
C     1.132000000    -0.373000000    -0.889000000
H     1.911000000    -0.737000000    -1.554000000
C     1.342000000    -0.590000000     0.518000000
C     2.679000000    -1.162000000     0.964000000
O     3.587000000    -1.385000000     0.162000000
O     2.870000000    -1.257000000     2.168000000
