17
-92.85914
C     1.327000000    -0.716000000    -0.131000000
H     2.280000000    -1.111000000    -0.473000000
C     0.151000000    -1.110000000    -0.825000000
H     0.254000000    -1.938000000    -1.521000000
C    -1.029000000    -0.343000000    -0.647000000
C    -2.353000000    -0.659000000    -1.270000000
H    -3.021000000    -0.927000000    -0.450000000
H    -2.634000000     0.115000000    -1.987000000
H    -2.202000000    -1.565000000    -1.861000000
C    -1.007000000     0.662000000     0.256000000
H    -1.930000000     1.233000000     0.318000000
C     0.113000000     0.908000000     1.086000000
H     0.063000000     1.790000000     1.720000000
C     1.323000000     0.305000000     0.887000000
C     2.572000000     0.918000000     1.509000000
O     2.426000000     1.864000000     2.283000000
O     3.661000000     0.580000000     1.100000000
