17
-91.30491
C     0.786000000    -1.237000000    -0.228000000
H     1.208000000    -2.156000000    -0.627000000
C    -0.568000000    -1.152000000     0.034000000
H    -1.145000000    -2.074000000     0.023000000
C    -1.230000000     0.075000000     0.223000000
C    -2.682000000     0.099000000     0.456000000
H    -2.863000000     0.187000000     1.529000000
H    -3.117000000     0.962000000    -0.054000000
H    -3.150000000    -0.830000000     0.123000000
C    -0.495000000     1.230000000     0.303000000
H    -0.954000000     2.206000000     0.437000000
C     0.875000000     1.155000000     0.042000000
H     1.469000000     2.059000000    -0.068000000
C     1.565000000    -0.074000000    -0.286000000
C     3.064000000    -0.138000000    -0.531000000
O     3.645000000     0.848000000    -0.962000000
O     3.594000000    -1.161000000    -0.411000000
