17
-95.47483
C     0.475000000    -1.348000000     0.329000000
H     0.612000000    -2.417000000     0.473000000
C    -0.694000000    -0.771000000     0.811000000
H    -1.395000000    -1.391000000     1.364000000
C    -1.000000000     0.511000000     0.474000000
C    -2.379000000     1.083000000     0.823000000
H    -2.194000000     1.713000000     1.695000000
H    -2.885000000     1.602000000     0.006000000
H    -3.128000000     0.316000000     1.031000000
C    -0.116000000     1.284000000    -0.300000000
H    -0.361000000     2.315000000    -0.542000000
C     1.108000000     0.718000000    -0.666000000
H     1.851000000     1.329000000    -1.174000000
C     1.350000000    -0.651000000    -0.411000000
C     2.591000000    -1.296000000    -1.085000000
O     3.548000000    -0.573000000    -1.290000000
O     2.618000000    -2.421000000    -1.530000000
