17
-81.24373
C     1.086000000    -0.722000000     0.793000000
H     1.672000000    -1.399000000     1.408000000
C    -0.231000000    -0.597000000     1.175000000
H    -0.628000000    -1.148000000     2.025000000
C    -1.147000000     0.153000000     0.406000000
C    -2.583000000     0.219000000     0.743000000
H    -2.727000000     0.706000000     1.709000000
H    -2.987000000     0.926000000     0.016000000
H    -3.043000000    -0.749000000     0.535000000
C    -0.754000000     0.749000000    -0.753000000
H    -1.497000000     1.236000000    -1.381000000
C     0.593000000     0.654000000    -1.110000000
H     0.990000000     1.157000000    -1.988000000
C     1.496000000    -0.074000000    -0.348000000
C     2.851000000    -0.345000000    -0.924000000
O     3.215000000     0.151000000    -1.964000000
O     3.686000000    -0.924000000    -0.345000000
