17
-95.71867
C     0.748000000    -1.184000000     0.484000000
H     1.256000000    -2.030000000     0.941000000
C    -0.271000000    -0.547000000     1.204000000
H    -0.537000000    -0.966000000     2.171000000
C    -0.956000000     0.517000000     0.641000000
C    -1.942000000     1.296000000     1.380000000
H    -2.595000000     1.844000000     0.697000000
H    -2.579000000     0.581000000     1.906000000
H    -1.527000000     2.092000000     2.001000000
C    -0.548000000     0.963000000    -0.617000000
H    -1.021000000     1.843000000    -1.045000000
C     0.542000000     0.418000000    -1.268000000
H     0.844000000     0.843000000    -2.221000000
C     1.191000000    -0.709000000    -0.755000000
C     2.197000000    -1.416000000    -1.607000000
O     2.248000000    -1.320000000    -2.814000000
O     2.955000000    -2.229000000    -1.094000000
