17
-85.45005
C     0.592000000    -1.324000000     0.004000000
H     0.883000000    -2.365000000     0.116000000
C    -0.457000000    -0.875000000     0.811000000
H    -0.909000000    -1.673000000     1.395000000
C    -0.939000000     0.369000000     0.674000000
C    -2.185000000     0.765000000     1.388000000
H    -3.010000000     0.873000000     0.681000000
H    -2.491000000     0.034000000     2.140000000
H    -1.927000000     1.698000000     1.893000000
C    -0.310000000     1.271000000    -0.206000000
H    -0.744000000     2.267000000    -0.235000000
C     0.819000000     0.888000000    -0.900000000
H     1.264000000     1.676000000    -1.502000000
C     1.261000000    -0.462000000    -0.879000000
C     2.400000000    -0.929000000    -1.620000000
O     2.789000000    -0.360000000    -2.589000000
O     2.967000000    -1.860000000    -1.169000000
