17
-90.83340
C    -0.445000000    -1.374000000    -0.309000000
H    -0.886000000    -2.359000000    -0.442000000
C    -1.275000000    -0.226000000    -0.410000000
H    -2.354000000    -0.259000000    -0.538000000
C    -0.731000000     1.002000000    -0.037000000
C    -1.604000000     2.221000000     0.159000000
H    -2.653000000     1.925000000     0.237000000
H    -1.313000000     2.888000000     0.973000000
H    -1.628000000     2.780000000    -0.779000000
C     0.643000000     1.120000000     0.154000000
H     1.023000000     2.111000000     0.389000000
C     1.473000000    -0.022000000     0.126000000
H     2.523000000     0.063000000     0.394000000
C     0.943000000    -1.299000000    -0.068000000
C     1.830000000    -2.507000000     0.051000000
O     2.919000000    -2.498000000     0.557000000
O     1.531000000    -3.561000000    -0.461000000
