17
-90.73279
C    -0.468000000    -0.338000000    -1.443000000
H    -0.948000000    -0.515000000    -2.402000000
C    -1.101000000     0.594000000    -0.549000000
H    -2.032000000     1.068000000    -0.850000000
C    -0.692000000     0.665000000     0.778000000
C    -1.388000000     1.503000000     1.810000000
H    -2.422000000     1.605000000     1.475000000
H    -1.339000000     1.041000000     2.799000000
H    -0.871000000     2.458000000     1.917000000
C     0.539000000     0.156000000     1.158000000
H     0.931000000     0.329000000     2.157000000
C     1.311000000    -0.557000000     0.200000000
H     2.268000000    -0.974000000     0.505000000
C     0.773000000    -0.881000000    -1.073000000
C     1.604000000    -1.738000000    -1.988000000
O     2.748000000    -1.964000000    -1.691000000
O     1.084000000    -2.446000000    -2.810000000
