17
-84.12501
C    -0.170000000    -0.687000000    -1.327000000
H    -0.398000000    -1.248000000    -2.230000000
C    -1.185000000    -0.255000000    -0.436000000
H    -2.240000000    -0.450000000    -0.615000000
C    -0.908000000     0.458000000     0.716000000
C    -2.027000000     0.944000000     1.696000000
H    -2.971000000     0.495000000     1.380000000
H    -1.806000000     0.462000000     2.650000000
H    -2.027000000     2.031000000     1.799000000
C     0.413000000     0.645000000     0.991000000
H     0.703000000     1.014000000     1.971000000
C     1.434000000     0.324000000     0.110000000
H     2.467000000     0.573000000     0.340000000
C     1.158000000    -0.435000000    -0.961000000
C     2.218000000    -1.119000000    -1.854000000
O     3.318000000    -0.830000000    -1.528000000
O     2.018000000    -1.917000000    -2.697000000
