17
-94.13502
C    -0.309000000    -1.248000000    -0.666000000
H    -0.647000000    -2.207000000    -1.050000000
C    -1.025000000    -0.688000000     0.374000000
H    -1.889000000    -1.179000000     0.815000000
C    -0.601000000     0.488000000     0.948000000
C    -1.368000000     1.093000000     2.081000000
H    -1.305000000     0.449000000     2.961000000
H    -0.945000000     2.079000000     2.289000000
H    -2.420000000     1.265000000     1.846000000
C     0.495000000     1.172000000     0.402000000
H     0.828000000     2.112000000     0.834000000
C     1.135000000     0.618000000    -0.691000000
H     2.066000000     1.083000000    -1.006000000
C     0.726000000    -0.512000000    -1.301000000
C     1.521000000    -1.262000000    -2.363000000
O     2.713000000    -1.076000000    -2.511000000
O     1.028000000    -2.189000000    -2.963000000
