17
-86.30528
C    -0.245000000    -1.207000000    -0.799000000
H    -0.513000000    -2.048000000    -1.434000000
C    -1.106000000    -0.578000000     0.114000000
H    -2.100000000    -1.011000000     0.191000000
C    -0.761000000     0.467000000     0.878000000
C    -1.798000000     1.079000000     1.729000000
H    -1.671000000     0.781000000     2.771000000
H    -1.842000000     2.157000000     1.560000000
H    -2.776000000     0.659000000     1.483000000
C     0.447000000     1.113000000     0.604000000
H     0.662000000     2.115000000     0.968000000
C     1.342000000     0.562000000    -0.315000000
H     2.265000000     1.034000000    -0.644000000
C     1.035000000    -0.629000000    -0.949000000
C     2.100000000    -1.332000000    -1.791000000
O     3.214000000    -0.940000000    -1.888000000
O     1.740000000    -2.224000000    -2.481000000
