17
-89.16349
C     0.510000000    -1.313000000    -0.451000000
H     0.748000000    -2.328000000    -0.760000000
C    -0.721000000    -1.030000000     0.178000000
H    -1.361000000    -1.888000000     0.368000000
C    -1.064000000     0.199000000     0.632000000
C    -2.452000000     0.531000000     1.263000000
H    -3.103000000     0.989000000     0.515000000
H    -2.905000000    -0.409000000     1.585000000
H    -2.325000000     1.232000000     2.091000000
C    -0.238000000     1.241000000     0.254000000
H    -0.518000000     2.254000000     0.530000000
C     0.991000000     0.977000000    -0.455000000
H     1.557000000     1.864000000    -0.727000000
C     1.405000000    -0.282000000    -0.738000000
C     2.791000000    -0.598000000    -1.267000000
O     3.634000000     0.259000000    -1.417000000
O     3.053000000    -1.698000000    -1.602000000
