17
-91.68747
C     0.158000000    -1.279000000     0.727000000
H     0.132000000    -2.343000000     0.944000000
C    -1.012000000    -0.686000000     0.155000000
H    -1.894000000    -1.309000000     0.026000000
C    -1.039000000     0.565000000    -0.432000000
C    -2.234000000     0.874000000    -1.227000000
H    -3.111000000     0.918000000    -0.578000000
H    -2.142000000     1.810000000    -1.781000000
H    -2.453000000     0.071000000    -1.934000000
C     0.171000000     1.357000000    -0.323000000
H     0.147000000     2.328000000    -0.810000000
C     1.275000000     0.810000000     0.307000000
H     2.176000000     1.417000000     0.326000000
C     1.270000000    -0.516000000     0.763000000
C     2.532000000    -1.121000000     1.249000000
O     3.483000000    -0.811000000     0.585000000
O     2.539000000    -2.088000000     2.006000000
