17
-97.41567
C    -0.416000000    -0.480000000     1.388000000
H    -0.882000000    -0.852000000     2.297000000
C    -1.251000000    -0.130000000     0.350000000
H    -2.327000000    -0.264000000     0.428000000
C    -0.754000000     0.268000000    -0.909000000
C    -1.697000000     0.673000000    -2.040000000
H    -2.603000000     1.080000000    -1.586000000
H    -1.199000000     1.495000000    -2.558000000
H    -1.963000000    -0.118000000    -2.744000000
C     0.573000000     0.351000000    -1.114000000
H     0.895000000     0.599000000    -2.122000000
C     1.469000000     0.074000000    -0.049000000
H     2.539000000     0.223000000    -0.167000000
C     0.959000000    -0.398000000     1.193000000
C     1.935000000    -0.723000000     2.278000000
O     3.174000000    -0.739000000     2.007000000
O     1.543000000    -1.057000000     3.351000000
