17
-94.84329
C    -0.368000000    -0.318000000     1.356000000
H    -0.675000000    -0.417000000     2.394000000
C    -1.193000000     0.240000000     0.400000000
H    -2.200000000     0.494000000     0.720000000
C    -0.724000000     0.456000000    -0.841000000
C    -1.630000000     1.060000000    -1.873000000
H    -2.364000000     0.326000000    -2.213000000
H    -2.231000000     1.844000000    -1.407000000
H    -1.087000000     1.561000000    -2.677000000
C     0.492000000    -0.080000000    -1.216000000
H     0.704000000     0.014000000    -2.278000000
C     1.383000000    -0.562000000    -0.266000000
H     2.409000000    -0.679000000    -0.608000000
C     0.963000000    -0.644000000     1.084000000
C     1.910000000    -1.020000000     2.177000000
O     3.006000000    -1.469000000     1.913000000
O     1.599000000    -0.800000000     3.335000000
