17
-92.03406
C     0.671000000    -0.555000000     1.210000000
H     1.076000000    -0.793000000     2.190000000
C    -0.662000000    -0.025000000     1.185000000
H    -1.207000000     0.182000000     2.102000000
C    -1.238000000     0.408000000    -0.066000000
C    -2.545000000     1.136000000    -0.138000000
H    -2.443000000     2.022000000    -0.768000000
H    -3.360000000     0.540000000    -0.553000000
H    -2.808000000     1.366000000     0.896000000
C    -0.371000000     0.375000000    -1.158000000
H    -0.739000000     0.589000000    -2.158000000
C     0.877000000    -0.221000000    -1.104000000
H     1.593000000    -0.168000000    -1.920000000
C     1.401000000    -0.754000000     0.083000000
C     2.877000000    -1.210000000     0.088000000
O     3.610000000    -0.897000000    -0.811000000
O     3.267000000    -1.996000000     0.927000000
