17
-98.45040
C    -1.454000000     0.439000000     0.086000000
H    -2.438000000     0.902000000     0.087000000
C    -0.687000000     0.585000000    -1.025000000
H    -1.025000000     1.038000000    -1.953000000
C     0.641000000     0.089000000    -1.036000000
C     1.534000000     0.100000000    -2.213000000
H     2.418000000     0.716000000    -2.035000000
H     1.881000000    -0.914000000    -2.425000000
H     0.949000000     0.437000000    -3.071000000
C     1.208000000    -0.436000000     0.153000000
H     2.233000000    -0.799000000     0.138000000
C     0.376000000    -0.661000000     1.286000000
H     0.788000000    -1.135000000     2.172000000
C    -0.910000000    -0.198000000     1.216000000
C    -1.705000000    -0.162000000     2.514000000
O    -1.087000000    -0.543000000     3.510000000
O    -2.719000000     0.541000000     2.590000000
