17
-85.96478
C    -0.478000000     1.198000000     0.769000000
H    -0.709000000     2.140000000     1.260000000
C     0.234000000     1.235000000    -0.444000000
H     0.594000000     2.171000000    -0.863000000
C     0.592000000     0.061000000    -1.037000000
C     1.273000000    -0.011000000    -2.447000000
H     0.518000000    -0.073000000    -3.235000000
H     1.804000000     0.942000000    -2.507000000
H     1.948000000    -0.857000000    -2.587000000
C     0.262000000    -1.166000000    -0.504000000
H     0.733000000    -2.002000000    -1.016000000
C    -0.336000000    -1.196000000     0.760000000
H    -0.570000000    -2.102000000     1.313000000
C    -0.790000000    -0.030000000     1.375000000
C    -1.427000000    -0.085000000     2.728000000
O    -1.730000000    -1.124000000     3.247000000
O    -1.917000000     0.903000000     3.184000000
