144
-2794.96532
O     4.925000000    -0.543000000     0.538000000
H     5.324000000    -0.091000000    -0.205000000
H     5.114000000     0.020000000     1.290000000
O    -0.956000000     2.222000000     5.342000000
H    -0.982000000     1.280000000     5.175000000
H    -0.397000000     2.573000000     4.649000000
O    -0.270000000    -4.496000000     4.025000000
H    -1.163000000    -4.562000000     4.365000000
H    -0.228000000    -3.625000000     3.629000000
O    -6.235000000    -3.240000000     3.766000000
H    -5.693000000    -4.028000000     3.730000000
H    -5.623000000    -2.520000000     3.610000000
O     1.958000000    -6.981000000    -0.059000000
H     1.545000000    -7.003000000     0.804000000
H     1.941000000    -6.057000000    -0.309000000
O     4.116000000     3.812000000    -2.380000000
H     4.852000000     4.424000000    -2.412000000
H     4.466000000     2.998000000    -2.743000000
O     5.710000000     1.765000000    -3.086000000
H     5.817000000     0.863000000    -2.784000000
H     6.594000000     2.044000000    -3.324000000
O    -0.413000000     6.000000000     4.093000000
H    -0.071000000     5.144000000     3.832000000
H    -1.288000000     5.815000000     4.433000000
O    -3.834000000     0.623000000     0.943000000
H    -3.180000000     0.383000000     0.287000000
H    -3.893000000     1.576000000     0.885000000
O     2.570000000     0.992000000    -7.287000000
H     3.330000000     1.441000000    -7.656000000
H     2.606000000     0.112000000    -7.661000000
O    -2.857000000    -2.999000000     4.372000000
H    -3.478000000    -2.273000000     4.309000000
H    -2.148000000    -2.759000000     3.777000000
O     1.796000000    -4.357000000    -0.844000000
H     2.116000000    -4.303000000    -1.744000000
H     2.263000000    -3.661000000    -0.381000000
O    -3.135000000     0.267000000    -1.849000000
H    -4.044000000     0.020000000    -1.677000000
H    -2.662000000    -0.565000000    -1.869000000
O     1.807000000     5.601000000    -0.578000000
H     2.240000000     4.975000000    -1.159000000
H     1.643000000     5.108000000     0.226000000
O    -0.648000000    -3.663000000    -6.457000000
H    -1.205000000    -3.313000000    -5.762000000
H    -0.205000000    -2.895000000    -6.818000000
O    -2.312000000    -4.272000000    -0.981000000
H    -1.835000000    -3.875000000    -0.253000000
H    -1.691000000    -4.890000000    -1.366000000
O     2.992000000    -2.244000000     0.738000000
H     3.764000000    -1.750000000     0.463000000
H     2.412000000    -1.588000000     1.124000000
O    -2.079000000     1.345000000     7.636000000
H    -1.855000000     1.756000000     6.801000000
H    -2.119000000     2.073000000     8.257000000
O    -1.205000000     3.409000000    -5.683000000
H    -0.355000000     3.053000000    -5.424000000
H    -1.729000000     3.386000000    -4.882000000
O    -0.439000000    -5.369000000    -3.012000000
H    -0.912000000    -5.581000000    -3.817000000
H     0.265000000    -4.786000000    -3.294000000
O     5.007000000     2.619000000    -0.135000000
H     4.622000000     2.839000000    -0.983000000
H     5.575000000     3.361000000     0.070000000
O     2.789000000    -5.255000000     5.281000000
H     2.716000000    -6.132000000     4.904000000
H     1.971000000    -4.821000000     5.039000000
O    -2.430000000    -5.676000000     1.856000000
H    -2.347000000    -4.740000000     1.674000000
H    -2.497000000    -6.083000000     0.992000000
O     3.218000000     0.618000000     6.107000000
H     3.989000000     1.176000000     6.004000000
H     2.795000000     0.633000000     5.249000000
O     4.644000000    -1.198000000    -4.989000000
H     5.516000000    -1.576000000    -4.873000000
H     4.807000000    -0.273000000    -5.178000000
O    -0.158000000     3.521000000     3.100000000
H     0.630000000     3.193000000     2.667000000
H    -0.779000000     3.669000000     2.387000000
O    -0.818000000     4.632000000     0.695000000
H    -1.708000000     4.388000000     0.441000000
H    -0.654000000     5.455000000     0.234000000
O     2.198000000    -2.330000000    -5.374000000
H     3.045000000    -1.903000000    -5.241000000
H     1.557000000    -1.628000000    -5.269000000
O    -5.069000000    -3.722000000    -2.180000000
H    -4.321000000    -3.762000000    -1.584000000
H    -5.719000000    -4.304000000    -1.787000000
O    -6.066000000    -5.296000000     0.091000000
H    -5.948000000    -4.427000000     0.474000000
H    -6.847000000    -5.644000000     0.522000000
O    -1.747000000    -2.971000000     6.945000000
H    -1.229000000    -2.173000000     7.050000000
H    -2.156000000    -2.879000000     6.085000000
O    -2.732000000    -6.973000000     4.538000000
H    -3.485000000    -7.115000000     3.965000000
H    -2.146000000    -6.414000000     4.029000000
O    -2.328000000     4.617000000    -2.999000000
H    -3.097000000     4.199000000    -3.386000000
H    -2.024000000     3.995000000    -2.339000000
O     1.466000000     2.348000000    -5.107000000
H     1.809000000     2.116000000    -5.971000000
H     1.203000000     1.512000000    -4.722000000
O    -4.616000000    -0.607000000     3.508000000
H    -4.085000000    -0.043000000     2.946000000
H    -4.897000000    -0.036000000     4.224000000
O     3.274000000     2.901000000     1.809000000
H     3.513000000     3.827000000     1.850000000
H     3.841000000     2.537000000     1.128000000
O    -0.346000000    -0.614000000    -5.029000000
H    -0.876000000    -0.053000000    -5.595000000
H    -0.978000000    -1.202000000    -4.615000000
O     0.026000000    -0.766000000     4.977000000
H    -0.502000000    -1.116000000     4.259000000
H     0.580000000    -1.498000000     5.246000000
O     0.268000000    -6.797000000     2.038000000
H     0.144000000    -5.860000000     2.189000000
H    -0.619000000    -7.147000000     1.958000000
O     3.012000000     0.615000000     3.238000000
H     3.954000000     0.765000000     3.151000000
H     2.609000000     1.329000000     2.744000000
O    -4.810000000    -5.457000000     3.093000000
H    -5.460000000    -5.959000000     2.601000000
H    -4.051000000    -5.413000000     2.511000000
O    -2.019000000    -2.514000000    -3.750000000
H    -1.831000000    -3.169000000    -3.078000000
H    -2.758000000    -2.877000000    -4.238000000
O    -2.251000000     2.680000000    -1.173000000
H    -1.341000000     2.513000000    -0.927000000
H    -2.604000000     1.816000000    -1.387000000
O     2.599000000     4.699000000    -4.529000000
H     3.004000000     4.582000000    -3.669000000
H     1.958000000     3.991000000    -4.590000000
O     4.564000000    -2.223000000     3.260000000
H     4.116000000    -2.958000000     2.840000000
H     3.940000000    -1.499000000     3.204000000
O     1.560000000     8.184000000    -0.582000000
H     1.613000000     7.228000000    -0.570000000
H     1.623000000     8.439000000     0.338000000
O    -4.296000000    -2.755000000     0.307000000
H    -4.575000000    -1.949000000     0.742000000
H    -3.431000000    -2.937000000     0.674000000
O     2.705000000    -4.356000000    -3.397000000
H     2.521000000    -3.771000000    -4.132000000
H     3.635000000    -4.566000000    -3.485000000
