144
-2820.03787
O     1.374000000     3.697000000     2.998000000
H     1.384000000     4.372000000     3.677000000
H     0.530000000     3.809000000     2.561000000
O    -3.652000000    -5.687000000    -2.827000000
H    -3.822000000    -6.614000000    -2.661000000
H    -3.722000000    -5.272000000    -1.967000000
O    -1.207000000     1.891000000    -4.469000000
H    -1.954000000     1.724000000    -5.044000000
H    -0.592000000     1.185000000    -4.664000000
O     3.050000000     5.954000000     1.713000000
H     3.161000000     6.687000000     2.318000000
H     2.105000000     5.805000000     1.687000000
O     6.568000000     4.023000000     0.891000000
H     5.945000000     3.591000000     1.475000000
H     7.148000000     4.510000000     1.477000000
O     4.309000000     2.439000000     2.595000000
H     4.066000000     2.222000000     1.695000000
H     3.477000000     2.464000000     3.068000000
O     4.768000000     6.162000000    -0.252000000
H     5.520000000     5.678000000     0.088000000
H     4.090000000     6.050000000     0.416000000
O    -4.183000000    -3.371000000     3.108000000
H    -3.646000000    -2.609000000     2.892000000
H    -5.082000000    -3.043000000     3.095000000
O    -5.627000000    -1.821000000     0.729000000
H    -5.964000000    -2.207000000    -0.079000000
H    -4.682000000    -1.965000000     0.688000000
O     3.114000000     2.917000000    -4.282000000
H     3.664000000     2.241000000    -3.885000000
H     3.628000000     3.720000000    -4.204000000
O    -3.499000000    -3.723000000    -5.334000000
H    -4.233000000    -4.205000000    -4.954000000
H    -2.739000000    -4.284000000    -5.181000000
O     0.754000000    -3.486000000    -3.940000000
H     0.742000000    -3.978000000    -3.119000000
H     0.876000000    -4.152000000    -4.617000000
O     5.381000000    -2.137000000    -1.876000000
H     5.318000000    -2.874000000    -1.268000000
H     4.474000000    -1.943000000    -2.111000000
O    -1.151000000     0.435000000     7.916000000
H    -1.565000000     0.367000000     7.057000000
H    -1.749000000    -0.020000000     8.508000000
O     0.635000000    -5.086000000    -1.905000000
H     0.057000000    -5.574000000    -2.492000000
H     0.415000000    -5.408000000    -1.031000000
O     7.176000000     0.060000000    -1.258000000
H     7.711000000    -0.064000000    -2.042000000
H     6.338000000    -0.349000000    -1.472000000
O     1.879000000     5.007000000    -5.536000000
H     2.196000000     4.154000000    -5.240000000
H     1.096000000     4.807000000    -6.049000000
O    -3.223000000    -5.822000000     2.339000000
H    -3.645000000    -5.044000000     2.704000000
H    -2.325000000    -5.546000000     2.158000000
O     1.847000000     2.193000000     5.464000000
H     1.501000000     2.737000000     4.756000000
H     1.805000000     2.754000000     6.238000000
O    -5.304000000     0.072000000     2.650000000
H    -4.427000000    -0.310000000     2.680000000
H    -5.751000000    -0.409000000     1.953000000
O    -6.623000000     2.391000000     2.861000000
H    -6.242000000     2.828000000     2.099000000
H    -6.305000000     1.490000000     2.803000000
O     2.609000000    -1.810000000    -2.417000000
H     1.982000000    -2.277000000    -2.970000000
H     2.242000000    -1.870000000    -1.535000000
O     4.326000000     0.025000000    -4.172000000
H     4.963000000    -0.625000000    -4.468000000
H     3.684000000    -0.480000000    -3.672000000
O    -0.782000000     3.784000000     1.339000000
H    -1.146000000     2.923000000     1.135000000
H    -1.538000000     4.371000000     1.332000000
O     0.731000000     4.622000000    -0.747000000
H     0.177000000     4.226000000    -0.074000000
H     1.573000000     4.175000000    -0.658000000
O     1.915000000    -4.712000000     2.041000000
H     2.107000000    -3.856000000     1.659000000
H     2.428000000    -5.328000000     1.519000000
O    -2.174000000     3.738000000    -2.638000000
H    -1.882000000     3.592000000    -1.738000000
H    -1.923000000     2.939000000    -3.102000000
O     6.770000000     2.695000000    -1.475000000
H     6.827000000     1.855000000    -1.020000000
H     6.417000000     3.298000000    -0.821000000
O    -6.208000000    -2.368000000    -1.923000000
H    -6.179000000    -2.989000000    -2.651000000
H    -5.437000000    -1.816000000    -2.048000000
O    -3.869000000    -4.745000000    -0.384000000
H    -3.846000000    -5.075000000     0.514000000
H    -3.520000000    -3.856000000    -0.322000000
O     0.043000000    -2.431000000     3.832000000
H     0.061000000    -3.240000000     4.344000000
H     0.920000000    -2.063000000     3.934000000
O    -3.777000000    -0.879000000    -4.737000000
H    -3.676000000    -1.790000000    -5.011000000
H    -3.941000000    -0.928000000    -3.795000000
O    -3.844000000    -1.061000000    -1.968000000
H    -3.965000000    -0.178000000    -1.617000000
H    -3.603000000    -1.589000000    -1.207000000
O    -3.199000000     0.990000000     6.065000000
H    -3.997000000     0.812000000     6.563000000
H    -3.107000000     0.235000000     5.483000000
O    -6.875000000    -1.218000000     4.860000000
H    -7.723000000    -0.786000000     4.762000000
H    -6.343000000    -0.869000000     4.145000000
O     2.543000000    -1.950000000    -6.566000000
H     2.493000000    -1.008000000    -6.404000000
H     2.603000000    -2.026000000    -7.518000000
O    -2.401000000    -1.142000000     4.474000000
H    -1.552000000    -1.583000000     4.470000000
H    -2.640000000    -1.073000000     3.549000000
O     2.378000000    -2.086000000     1.067000000
H     1.778000000    -1.428000000     1.416000000
H     3.231000000    -1.653000000     1.059000000
O    -2.895000000     2.191000000     3.353000000
H    -3.321000000     3.044000000     3.429000000
H    -2.861000000     1.860000000     4.251000000
O    -3.273000000     2.011000000     0.523000000
H    -3.212000000     1.441000000     1.290000000
H    -3.959000000     2.640000000     0.746000000
O     4.919000000     4.984000000    -3.517000000
H     5.285000000     4.181000000    -3.889000000
H     5.683000000     5.514000000    -3.293000000
O     6.020000000     2.251000000    -4.415000000
H     6.407000000     2.088000000    -3.555000000
H     5.460000000     1.491000000    -4.573000000
O    -0.588000000    -1.257000000    -5.112000000
H    -1.227000000    -1.471000000    -4.432000000
H     0.143000000    -1.854000000    -4.951000000
O    -0.636000000    -4.677000000     1.809000000
H     0.263000000    -4.505000000     2.090000000
H    -1.148000000    -3.966000000     2.195000000
O     2.066000000    -0.770000000     4.808000000
H     1.945000000     0.176000000     4.732000000
H     2.072000000    -0.936000000     5.751000000
O     4.578000000    -0.498000000     2.340000000
H     5.532000000    -0.573000000     2.340000000
H     4.375000000    -0.025000000     3.147000000
O    -3.742000000    -2.858000000     6.383000000
H    -4.593000000    -2.682000000     5.984000000
H    -3.122000000    -2.350000000     5.860000000
O     1.877000000     0.829000000    -6.150000000
H     0.934000000     0.888000000    -5.993000000
H     2.260000000     1.470000000    -5.551000000
