144
-2844.37489
O    -0.112000000    -0.450000000     5.533000000
H     0.261000000    -0.907000000     6.287000000
H    -0.018000000     0.478000000     5.744000000
O     6.140000000     2.877000000     2.024000000
H     5.197000000     2.749000000     1.922000000
H     6.475000000     2.010000000     2.255000000
O    -1.763000000    -4.000000000     2.349000000
H    -2.577000000    -4.394000000     2.036000000
H    -2.047000000    -3.288000000     2.922000000
O    -1.269000000     1.523000000    -7.106000000
H    -1.264000000     2.480000000    -7.069000000
H    -1.833000000     1.259000000    -6.379000000
O    -5.220000000    -0.965000000     2.128000000
H    -5.466000000    -0.043000000     2.214000000
H    -4.266000000    -0.966000000     2.203000000
O    -5.337000000     0.838000000    -6.866000000
H    -4.460000000     0.532000000    -6.636000000
H    -5.187000000     1.536000000    -7.505000000
O     0.176000000     4.905000000     5.312000000
H     0.094000000     4.505000000     4.446000000
H     0.821000000     5.603000000     5.194000000
O    -1.952000000    -1.630000000     3.939000000
H    -2.191000000    -0.853000000     3.434000000
H    -1.301000000    -1.317000000     4.566000000
O     3.654000000     2.318000000     2.561000000
H     2.974000000     2.977000000     2.422000000
H     3.787000000     2.307000000     3.508000000
O     1.987000000    -4.750000000     0.281000000
H     1.041000000    -4.613000000     0.227000000
H     2.311000000    -4.532000000    -0.593000000
O    -0.631000000    -4.208000000    -0.306000000
H    -1.410000000    -4.144000000    -0.858000000
H    -0.934000000    -3.955000000     0.566000000
O     4.681000000    -4.119000000     1.400000000
H     4.644000000    -3.986000000     2.347000000
H     3.776000000    -4.299000000     1.147000000
O     1.807000000     2.060000000    -5.191000000
H     2.105000000     2.952000000    -5.012000000
H     0.871000000     2.076000000    -4.991000000
O    -2.069000000    -2.391000000    -4.132000000
H    -2.384000000    -1.574000000    -3.744000000
H    -2.010000000    -2.999000000    -3.395000000
O     1.219000000    -4.214000000    -2.617000000
H     1.130000000    -5.103000000    -2.960000000
H     0.447000000    -4.092000000    -2.064000000
O     0.925000000     2.655000000     6.518000000
H     0.539000000     3.472000000     6.202000000
H     0.649000000     2.597000000     7.433000000
O    -0.158000000    -4.351000000     4.428000000
H    -0.648000000    -4.860000000     5.073000000
H    -0.627000000    -4.489000000     3.606000000
O     4.453000000     0.845000000     0.122000000
H     4.538000000     0.024000000     0.608000000
H     3.986000000     1.430000000     0.719000000
O     4.300000000    -1.235000000    -3.736000000
H     3.778000000    -1.295000000    -4.536000000
H     3.655000000    -1.126000000    -3.037000000
O     2.485000000    -1.377000000    -1.499000000
H     1.603000000    -1.747000000    -1.548000000
H     2.445000000    -0.759000000    -0.769000000
O    -0.471000000     3.867000000    -3.665000000
H    -0.573000000     2.919000000    -3.585000000
H    -0.642000000     4.050000000    -4.589000000
O    -1.012000000     3.341000000     0.721000000
H    -0.372000000     3.639000000     0.074000000
H    -1.555000000     2.710000000     0.247000000
O     2.201000000    -5.106000000     3.361000000
H     1.368000000    -4.909000000     3.789000000
H     1.960000000    -5.331000000     2.462000000
O    -5.745000000    -2.268000000    -2.361000000
H    -5.683000000    -1.313000000    -2.329000000
H    -5.558000000    -2.550000000    -1.465000000
O    -5.643000000     3.505000000    -2.864000000
H    -4.750000000     3.736000000    -2.607000000
H    -5.841000000     4.091000000    -3.594000000
O    -3.056000000     0.241000000    -5.569000000
H    -3.037000000     0.533000000    -4.657000000
H    -2.337000000    -0.388000000    -5.634000000
O    -3.229000000     4.642000000    -2.822000000
H    -2.609000000     4.072000000    -3.276000000
H    -3.308000000     5.410000000    -3.389000000
O    -3.221000000     1.696000000    -0.301000000
H    -3.810000000     1.093000000    -0.755000000
H    -3.693000000     2.529000000    -0.292000000
O     1.337000000     3.868000000     2.323000000
H     0.798000000     3.343000000     1.731000000
H     1.177000000     4.772000000     2.053000000
O     0.742000000    -0.424000000    -7.454000000
H     0.145000000     0.320000000    -7.536000000
H     0.574000000    -0.954000000    -8.233000000
O    -4.858000000     0.253000000    -1.976000000
H    -4.028000000     0.211000000    -2.452000000
H    -5.155000000     1.155000000    -2.091000000
O     0.723000000     4.525000000    -1.249000000
H     0.958000000     5.435000000    -1.427000000
H     0.219000000     4.253000000    -2.017000000
O    -3.590000000    -2.033000000    -7.172000000
H    -4.255000000    -2.218000000    -6.509000000
H    -2.759000000    -2.099000000    -6.702000000
O    -4.781000000    -2.950000000     0.339000000
H    -5.178000000    -2.512000000     1.091000000
H    -4.552000000    -3.822000000     0.662000000
O     3.610000000     3.858000000    -0.626000000
H     3.876000000     3.237000000    -1.304000000
H     2.680000000     4.011000000    -0.793000000
O    -0.738000000     4.402000000    -6.434000000
H    -1.190000000     5.243000000    -6.503000000
H    -0.035000000     4.454000000    -7.081000000
O     0.808000000    -0.992000000    -4.738000000
H     0.620000000    -0.646000000    -5.610000000
H     0.526000000    -0.299000000    -4.140000000
O    -2.951000000     0.674000000     2.310000000
H    -2.779000000     0.951000000     1.410000000
H    -3.095000000     1.490000000     2.789000000
O     1.929000000    -2.760000000     5.681000000
H     1.799000000    -2.007000000     5.104000000
H     1.361000000    -3.440000000     5.319000000
O     4.886000000    -0.424000000     5.070000000
H     5.238000000     0.044000000     4.313000000
H     5.659000000    -0.679000000     5.575000000
O    -1.494000000     2.894000000     3.339000000
H    -0.874000000     2.165000000     3.377000000
H    -1.352000000     3.285000000     2.477000000
O     4.596000000    -3.859000000     4.298000000
H     4.419000000    -3.338000000     5.081000000
H     3.816000000    -4.404000000     4.191000000
O    -5.467000000    -2.660000000    -5.166000000
H    -5.141000000    -2.637000000    -4.266000000
H    -6.411000000    -2.523000000    -5.081000000
O     4.865000000     2.171000000    -2.340000000
H     4.662000000     1.539000000    -3.029000000
H     4.876000000     1.653000000    -1.535000000
O     3.326000000     1.735000000     5.252000000
H     2.458000000     1.731000000     5.656000000
H     3.675000000     0.861000000     5.426000000
O    -2.783000000    -3.780000000    -1.743000000
H    -3.344000000    -4.534000000    -1.928000000
H    -3.263000000    -3.280000000    -1.083000000
O     3.121000000    -0.239000000    -6.191000000
H     2.671000000     0.478000000    -5.744000000
H     2.528000000    -0.490000000    -6.898000000
O     5.607000000    -1.667000000     0.596000000
H     6.302000000    -1.834000000    -0.039000000
H     5.515000000    -2.492000000     1.073000000
