144
-2802.42336
O     2.464000000     6.413000000    -2.273000000
H     1.947000000     7.179000000    -2.522000000
H     1.950000000     5.666000000    -2.579000000
O    -2.568000000     3.263000000    -4.765000000
H    -2.772000000     4.192000000    -4.660000000
H    -1.908000000     3.086000000    -4.095000000
O    -3.463000000    -3.279000000     5.658000000
H    -4.261000000    -3.202000000     5.135000000
H    -2.752000000    -3.136000000     5.034000000
O     1.482000000    -1.147000000     5.170000000
H     1.096000000    -0.271000000     5.178000000
H     0.749000000    -1.730000000     4.972000000
O     6.581000000    -2.282000000     5.723000000
H     5.797000000    -2.356000000     5.179000000
H     7.050000000    -3.104000000     5.581000000
O    -6.723000000     2.299000000     1.398000000
H    -5.976000000     1.853000000     0.998000000
H    -7.058000000     2.871000000     0.709000000
O     5.430000000     2.020000000     0.904000000
H     6.356000000     2.233000000     0.796000000
H     5.064000000     2.770000000     1.373000000
O    -0.857000000    -2.881000000     4.614000000
H    -0.686000000    -3.424000000     5.383000000
H    -0.940000000    -3.505000000     3.893000000
O    -0.864000000    -4.225000000     2.161000000
H    -1.259000000    -3.437000000     1.788000000
H    -1.531000000    -4.903000000     2.049000000
O     4.030000000    -1.136000000     4.419000000
H     4.344000000    -0.261000000     4.646000000
H     3.076000000    -1.055000000     4.411000000
O     1.245000000     4.122000000    -3.231000000
H     1.752000000     3.330000000    -3.412000000
H     0.462000000     3.806000000    -2.779000000
O     4.568000000     2.079000000    -1.641000000
H     5.336000000     2.330000000    -2.153000000
H     4.927000000     1.651000000    -0.863000000
O     2.455000000     2.350000000     2.901000000
H     2.188000000     2.295000000     3.818000000
H     1.646000000     2.542000000     2.427000000
O    -3.458000000    -0.956000000    -3.369000000
H    -3.420000000    -0.045000000    -3.079000000
H    -4.230000000    -0.996000000    -3.933000000
O     3.128000000     5.357000000     0.222000000
H     3.220000000     5.740000000    -0.650000000
H     2.212000000     5.081000000     0.267000000
O    -5.903000000    -0.884000000    -4.894000000
H    -5.717000000     0.018000000    -5.152000000
H    -6.773000000    -0.845000000    -4.496000000
O    -0.567000000     2.115000000    -6.962000000
H    -0.908000000     3.010000000    -6.974000000
H    -0.308000000     1.970000000    -6.052000000
O    -3.189000000    -3.154000000    -1.746000000
H    -3.653000000    -3.836000000    -2.232000000
H    -3.365000000    -2.350000000    -2.235000000
O    -7.567000000     1.845000000    -3.188000000
H    -8.055000000     2.665000000    -3.268000000
H    -6.735000000     2.099000000    -2.789000000
O     4.999000000    -0.435000000     0.036000000
H     5.277000000    -1.075000000     0.691000000
H     5.101000000     0.412000000     0.470000000
O     3.471000000    -5.619000000     1.218000000
H     3.018000000    -6.127000000     1.891000000
H     2.808000000    -5.470000000     0.544000000
O    -0.534000000    -3.456000000    -1.062000000
H    -1.447000000    -3.615000000    -1.302000000
H    -0.568000000    -2.694000000    -0.484000000
O    -2.067000000     4.753000000    -1.207000000
H    -1.816000000     4.201000000    -1.948000000
H    -2.913000000     4.405000000    -0.925000000
O    -1.266000000    -1.373000000    -5.445000000
H    -2.142000000    -1.370000000    -5.060000000
H    -0.848000000    -0.586000000    -5.095000000
O    -4.698000000     4.594000000    -0.276000000
H    -4.406000000     4.977000000     0.552000000
H    -5.623000000     4.830000000    -0.336000000
O    -3.003000000     7.118000000    -2.364000000
H    -2.692000000     6.277000000    -2.030000000
H    -2.420000000     7.314000000    -3.098000000
O    -5.240000000     2.502000000    -2.455000000
H    -5.142000000     3.091000000    -1.707000000
H    -4.360000000     2.154000000    -2.602000000
O     5.878000000    -4.312000000     0.861000000
H     5.062000000    -4.793000000     0.999000000
H     5.698000000    -3.434000000     1.198000000
O    -2.625000000     1.737000000     2.682000000
H    -2.674000000     0.838000000     3.009000000
H    -3.249000000     2.221000000     3.222000000
O     2.742000000    -7.010000000    -1.722000000
H     2.298000000    -7.740000000    -2.152000000
H     2.044000000    -6.542000000    -1.263000000
O    -2.633000000    -0.872000000     3.655000000
H    -3.399000000    -0.835000000     4.229000000
H    -1.945000000    -1.254000000     4.199000000
O    -0.052000000     2.542000000     2.163000000
H     0.171000000     1.703000000     1.762000000
H    -0.971000000     2.451000000     2.415000000
O    -3.856000000     1.513000000    -6.232000000
H    -3.854000000     1.989000000    -7.062000000
H    -3.508000000     2.138000000    -5.596000000
O     4.222000000     4.141000000     2.427000000
H     3.787000000     4.635000000     1.733000000
H     3.614000000     3.431000000     2.632000000
O    -4.326000000     1.347000000     0.561000000
H    -3.890000000     1.512000000    -0.274000000
H    -3.631000000     1.429000000     1.215000000
O     0.338000000     4.780000000     0.233000000
H     0.241000000     3.947000000     0.695000000
H    -0.439000000     4.836000000    -0.324000000
O    -4.848000000    -1.479000000     2.129000000
H    -4.239000000    -0.750000000     2.245000000
H    -4.336000000    -2.150000000     1.678000000
O     0.137000000     1.081000000    -4.419000000
H     1.059000000     1.149000000    -4.173000000
H    -0.315000000     1.678000000    -3.823000000
O     0.897000000    -5.771000000    -0.500000000
H     0.293000000    -5.035000000    -0.404000000
H     0.387000000    -6.442000000    -0.954000000
O    -6.780000000    -1.055000000    -0.009000000
H    -6.106000000    -0.951000000     0.662000000
H    -7.089000000    -1.955000000     0.099000000
O     0.771000000     1.629000000     5.725000000
H    -0.088000000     1.526000000     5.315000000
H     0.721000000     2.471000000     6.177000000
O     3.426000000    -1.419000000     7.276000000
H     4.186000000    -1.130000000     6.771000000
H     2.729000000    -1.514000000     6.628000000
O     3.378000000    -0.893000000    -2.113000000
H     3.881000000    -0.581000000    -1.360000000
H     2.920000000    -0.116000000    -2.433000000
O     2.813000000     1.821000000    -3.632000000
H     3.280000000     1.645000000    -2.816000000
H     3.502000000     1.889000000    -4.293000000
O    -3.934000000    -3.811000000     1.126000000
H    -3.913000000    -4.618000000     1.640000000
H    -4.457000000    -4.032000000     0.355000000
O     1.766000000    -3.254000000    -2.484000000
H     1.958000000    -2.317000000    -2.520000000
H     0.926000000    -3.309000000    -2.028000000
O     5.421000000    -1.909000000     2.386000000
H     6.161000000    -1.343000000     2.605000000
H     4.798000000    -1.777000000     3.100000000
O     0.918000000    -6.645000000     2.841000000
H     0.451000000    -5.815000000     2.744000000
H     1.094000000    -6.713000000     3.779000000
