144
-2798.67077
O     1.565000000     0.763000000    -7.948000000
H     1.797000000     0.843000000    -7.023000000
H     1.233000000    -0.130000000    -8.035000000
O     1.639000000    -2.752000000    -5.638000000
H     2.594000000    -2.728000000    -5.703000000
H     1.428000000    -2.098000000    -4.971000000
O     6.318000000     0.548000000     0.101000000
H     6.481000000     1.487000000     0.189000000
H     6.714000000     0.162000000     0.882000000
O     2.324000000     2.767000000    -2.883000000
H     1.640000000     2.606000000    -2.234000000
H     2.299000000     3.712000000    -3.029000000
O    -2.852000000    -2.260000000    -4.975000000
H    -2.899000000    -3.208000000    -4.846000000
H    -2.197000000    -1.965000000    -4.343000000
O    -4.584000000     1.888000000     5.239000000
H    -5.095000000     2.463000000     5.808000000
H    -3.765000000     2.362000000     5.092000000
O    -3.201000000    -4.004000000     3.547000000
H    -2.422000000    -4.039000000     2.992000000
H    -3.320000000    -3.073000000     3.734000000
O    -2.405000000    -6.286000000    -1.737000000
H    -2.287000000    -5.337000000    -1.685000000
H    -3.339000000    -6.402000000    -1.910000000
O    -6.483000000     1.355000000    -0.073000000
H    -6.271000000     0.521000000     0.346000000
H    -7.151000000     1.744000000     0.491000000
O    -2.208000000    -2.446000000    -7.900000000
H    -2.316000000    -1.981000000    -7.071000000
H    -3.100000000    -2.656000000    -8.176000000
O     4.266000000    -3.057000000    -5.303000000
H     5.167000000    -2.820000000    -5.521000000
H     4.160000000    -2.782000000    -4.392000000
O     0.868000000    -2.852000000     1.039000000
H     1.668000000    -2.618000000     1.511000000
H     0.484000000    -2.011000000     0.788000000
O     5.034000000     2.746000000    -2.442000000
H     4.100000000     2.578000000    -2.568000000
H     5.105000000     3.700000000    -2.414000000
O    -2.060000000    -6.671000000    -4.591000000
H    -1.489000000    -5.991000000    -4.233000000
H    -2.872000000    -6.213000000    -4.806000000
O    -3.488000000     0.819000000    -2.389000000
H    -3.881000000     1.533000000    -1.887000000
H    -2.731000000     1.217000000    -2.819000000
O    -4.573000000     3.094000000    -1.063000000
H    -3.945000000     3.281000000    -0.366000000
H    -5.323000000     2.706000000    -0.613000000
O     0.415000000     3.753000000    -0.596000000
H     1.204000000     4.066000000    -0.154000000
H     0.238000000     2.902000000    -0.196000000
O    -4.132000000     0.860000000    -5.563000000
H    -3.841000000    -0.010000000    -5.290000000
H    -3.375000000     1.425000000    -5.409000000
O     3.962000000    -4.058000000    -0.374000000
H     4.183000000    -3.128000000    -0.429000000
H     4.658000000    -4.499000000    -0.862000000
O    -4.781000000     0.728000000     2.667000000
H    -4.832000000     1.123000000     3.537000000
H    -4.629000000     1.467000000     2.077000000
O     2.469000000     4.308000000     0.941000000
H     2.798000000     5.190000000     0.770000000
H     3.134000000     3.909000000     1.502000000
O     4.268000000    -0.130000000     2.977000000
H     3.930000000    -0.968000000     2.662000000
H     3.495000000     0.337000000     3.294000000
O     0.931000000    -5.762000000    -6.057000000
H     0.637000000    -4.970000000    -5.606000000
H     1.136000000    -6.377000000    -5.353000000
O    -5.153000000    -3.044000000    -1.511000000
H    -5.193000000    -2.346000000    -2.165000000
H    -5.078000000    -2.584000000    -0.675000000
O     1.844000000     0.720000000    -4.953000000
H     1.152000000     0.149000000    -4.619000000
H     2.164000000     1.185000000    -4.180000000
O    -1.655000000     5.805000000     0.020000000
H    -1.077000000     5.140000000    -0.351000000
H    -1.346000000     5.918000000     0.919000000
O     3.753000000    -2.111000000    -2.831000000
H     2.902000000    -1.682000000    -2.920000000
H     4.089000000    -1.802000000    -1.989000000
O    -5.448000000    -1.177000000     0.572000000
H    -4.889000000    -0.928000000     1.308000000
H    -6.132000000    -1.719000000     0.964000000
O    -0.416000000    -4.518000000    -3.769000000
H    -0.672000000    -3.601000000    -3.664000000
H     0.336000000    -4.625000000    -3.187000000
O    -0.738000000    -2.409000000     5.199000000
H    -1.512000000    -2.074000000     4.746000000
H    -0.123000000    -1.675000000     5.197000000
O     1.473000000    -4.410000000    -1.223000000
H     2.417000000    -4.320000000    -1.089000000
H     1.083000000    -3.821000000    -0.577000000
O    -2.358000000     3.461000000     4.642000000
H    -1.401000000     3.457000000     4.638000000
H    -2.595000000     4.386000000     4.580000000
O    -1.921000000     2.048000000    -4.428000000
H    -1.033000000     2.048000000    -4.785000000
H    -2.058000000     2.947000000    -4.127000000
O     0.184000000     5.059000000     4.858000000
H     1.091000000     5.287000000     4.655000000
H     0.208000000     4.770000000     5.770000000
O     3.609000000    -2.582000000     2.298000000
H     4.424000000    -3.074000000     2.202000000
H     3.132000000    -3.040000000     2.990000000
O     4.559000000     3.450000000     2.506000000
H     5.484000000     3.403000000     2.750000000
H     4.087000000     3.295000000     3.323000000
O     0.023000000     6.706000000     2.388000000
H     0.479000000     7.335000000     2.947000000
H     0.054000000     5.884000000     2.877000000
O     0.893000000    -0.275000000     5.784000000
H     0.449000000     0.444000000     6.233000000
H     1.307000000     0.135000000     5.025000000
O    -1.506000000    -4.230000000     1.514000000
H    -1.536000000    -4.289000000     0.559000000
H    -0.596000000    -4.012000000     1.712000000
O    -2.306000000    -3.734000000    -1.227000000
H    -1.898000000    -2.999000000    -1.685000000
H    -3.246000000    -3.580000000    -1.317000000
O     4.412000000    -1.350000000    -0.235000000
H     5.175000000    -0.772000000    -0.204000000
H     4.115000000    -1.403000000     0.673000000
O    -3.252000000    -1.408000000     4.502000000
H    -3.912000000    -1.013000000     3.932000000
H    -3.691000000    -1.499000000     5.348000000
O     6.704000000     0.480000000    -2.591000000
H     5.965000000     1.087000000    -2.640000000
H     6.789000000     0.282000000    -1.658000000
O     0.411000000    -1.808000000    -8.000000000
H    -0.515000000    -2.016000000    -7.876000000
H     0.798000000    -1.911000000    -7.131000000
O    -3.299000000     3.547000000     1.415000000
H    -3.119000000     3.481000000     2.353000000
H    -3.346000000     4.488000000     1.246000000
O     2.678000000     1.577000000     4.579000000
H     2.884000000     2.512000000     4.570000000
H     3.032000000     1.262000000     5.410000000
O    -2.683000000     1.058000000     7.371000000
H    -2.015000000     0.493000000     7.760000000
H    -2.533000000     0.992000000     6.428000000
O    -5.743000000    -0.778000000    -3.074000000
H    -4.917000000    -0.301000000    -3.009000000
H    -6.391000000    -0.108000000    -3.293000000
