144
-2827.40039
O    -4.103000000     5.621000000    -1.205000000
H    -4.872000000     5.325000000    -1.692000000
H    -3.359000000     5.279000000    -1.701000000
O     2.055000000    -6.460000000     1.143000000
H     1.600000000    -6.192000000     0.345000000
H     1.544000000    -7.199000000     1.473000000
O    -6.326000000    -2.389000000     0.659000000
H    -5.807000000    -3.135000000     0.359000000
H    -6.127000000    -2.318000000     1.592000000
O     5.093000000    -3.629000000    -0.832000000
H     4.234000000    -3.210000000    -0.876000000
H     5.678000000    -3.025000000    -1.288000000
O    -5.507000000    -0.635000000    -1.375000000
H    -5.768000000    -1.367000000    -0.816000000
H    -5.807000000     0.144000000    -0.905000000
O    -2.995000000     1.340000000     4.245000000
H    -2.625000000     0.492000000     4.002000000
H    -2.628000000     1.953000000     3.608000000
O    -0.821000000    -5.175000000     1.837000000
H    -0.116000000    -4.662000000     2.232000000
H    -0.643000000    -5.144000000     0.897000000
O     0.291000000     4.719000000    -0.914000000
H     0.798000000     4.875000000    -1.711000000
H     0.931000000     4.390000000    -0.283000000
O    -5.726000000    -1.113000000     3.045000000
H    -5.609000000    -0.198000000     2.791000000
H    -4.837000000    -1.436000000     3.192000000
O     4.285000000     2.223000000    -1.924000000
H     4.042000000     1.307000000    -1.791000000
H     4.216000000     2.618000000    -1.055000000
O     6.156000000     0.262000000    -0.266000000
H     5.299000000     0.225000000    -0.689000000
H     6.024000000    -0.161000000     0.582000000
O    -2.281000000    -4.056000000    -2.009000000
H    -2.903000000    -3.867000000    -1.306000000
H    -2.427000000    -4.978000000    -2.217000000
O     1.827000000     4.348000000    -3.206000000
H     1.121000000     3.808000000    -3.561000000
H     2.421000000     4.483000000    -3.944000000
O     4.493000000     5.582000000    -1.743000000
H     5.203000000     5.198000000    -2.256000000
H     3.839000000     4.886000000    -1.681000000
O    -0.665000000    -1.177000000    -4.367000000
H     0.165000000    -1.630000000    -4.222000000
H    -1.302000000    -1.879000000    -4.495000000
O    -5.874000000     2.707000000    -0.691000000
H    -5.957000000     3.139000000    -1.541000000
H    -5.287000000     3.273000000    -0.190000000
O     7.838000000     2.462000000    -1.110000000
H     8.299000000     1.768000000    -1.581000000
H     6.948000000     2.128000000    -1.001000000
O    -3.524000000    -3.328000000    -4.384000000
H    -2.952000000    -3.550000000    -3.649000000
H    -3.324000000    -3.985000000    -5.051000000
O    -1.515000000     3.403000000     5.849000000
H    -2.117000000     2.695000000     5.617000000
H    -2.071000000     4.179000000     5.909000000
O     4.432000000     2.986000000     0.597000000
H     4.360000000     2.500000000     1.418000000
H     5.000000000     3.727000000     0.806000000
O    -4.831000000    -0.868000000    -3.999000000
H    -5.176000000    -0.863000000    -3.106000000
H    -4.169000000    -1.560000000    -3.996000000
O     7.880000000    -2.011000000    -0.440000000
H     8.429000000    -1.241000000    -0.289000000
H     7.104000000    -1.861000000     0.101000000
O     2.059000000    -2.778000000     2.916000000
H     2.441000000    -3.229000000     3.669000000
H     2.516000000    -3.147000000     2.160000000
O     1.163000000    -0.143000000     3.260000000
H     1.438000000    -1.059000000     3.283000000
H     0.993000000     0.033000000     2.334000000
O    -0.019000000    -5.483000000    -4.006000000
H    -0.584000000    -6.135000000    -3.591000000
H     0.814000000    -5.937000000    -4.135000000
O     1.959000000     4.175000000     1.018000000
H     2.757000000     3.730000000     0.734000000
H     1.631000000     3.640000000     1.741000000
O     3.020000000    -1.118000000    -5.760000000
H     3.704000000    -0.810000000    -5.167000000
H     2.557000000    -1.793000000    -5.263000000
O    -5.423000000     1.653000000     2.018000000
H    -4.507000000     1.774000000     1.767000000
H    -5.709000000     2.521000000     2.303000000
O    -1.381000000     0.767000000    -2.463000000
H    -1.175000000     0.211000000    -3.214000000
H    -1.440000000     0.159000000    -1.725000000
O    -2.981000000    -1.759000000     3.560000000
H    -2.887000000    -1.835000000     4.509000000
H    -2.329000000    -2.363000000     3.205000000
O    -8.101000000     0.880000000     2.747000000
H    -8.085000000     1.227000000     1.855000000
H    -7.434000000     0.193000000     2.749000000
O     5.476000000    -3.960000000    -4.638000000
H     5.631000000    -3.556000000    -3.785000000
H     6.100000000    -3.532000000    -5.224000000
O     2.537000000    -4.889000000    -2.107000000
H     2.970000000    -4.069000000    -1.869000000
H     3.185000000    -5.567000000    -1.914000000
O     6.191000000    -6.202000000    -0.524000000
H     6.017000000    -5.340000000    -0.901000000
H     5.825000000    -6.155000000     0.360000000
O    -2.571000000     3.937000000     2.984000000
H    -2.756000000     4.785000000     3.388000000
H    -2.084000000     4.152000000     2.189000000
O     1.591000000    -2.472000000    -3.584000000
H     1.187000000    -3.333000000    -3.477000000
H     2.133000000    -2.363000000    -2.803000000
O    -3.761000000     1.674000000    -4.359000000
H    -3.136000000     1.506000000    -3.654000000
H    -3.883000000     0.822000000    -4.778000000
O     5.567000000    -1.521000000    -2.787000000
H     4.876000000    -0.957000000    -2.441000000
H     6.380000000    -1.076000000    -2.550000000
O     0.039000000    -5.139000000    -0.678000000
H     0.743000000    -5.031000000    -1.318000000
H    -0.736000000    -4.782000000    -1.112000000
O     0.388000000     5.904000000     4.177000000
H     0.498000000     4.979000000     4.398000000
H     0.190000000     6.327000000     5.012000000
O    -4.633000000    -4.535000000     0.034000000
H    -4.218000000    -4.865000000     0.831000000
H    -4.984000000    -5.316000000    -0.394000000
O    -8.363000000     1.507000000    -0.062000000
H    -8.807000000     2.173000000    -0.588000000
H    -7.433000000     1.717000000    -0.146000000
O    -0.634000000     5.637000000     1.641000000
H     0.032000000     5.359000000     1.012000000
H    -0.172000000     5.675000000     2.478000000
O     6.169000000    -1.564000000     1.826000000
H     6.542000000    -1.388000000     2.690000000
H     5.495000000    -2.224000000     1.987000000
O     0.868000000     3.224000000     4.071000000
H     0.290000000     2.723000000     4.647000000
H     1.750000000     3.023000000     4.385000000
O     4.413000000    -3.785000000     1.841000000
H     4.806000000    -3.592000000     0.990000000
H     4.646000000    -4.698000000     2.011000000
O    -1.938000000     3.534000000    -2.172000000
H    -1.243000000     3.846000000    -1.592000000
H    -1.867000000     2.580000000    -2.139000000
O     3.638000000     1.731000000     2.883000000
H     4.372000000     1.594000000     3.481000000
H     3.008000000     1.049000000     3.115000000
