144
-2831.94489
O    -1.958000000     4.477000000     1.926000000
H    -2.093000000     4.933000000     1.096000000
H    -1.185000000     4.895000000     2.306000000
O    -1.146000000    -4.044000000     5.975000000
H    -0.319000000    -4.040000000     5.492000000
H    -0.906000000    -4.327000000     6.858000000
O     3.392000000    -4.815000000     1.478000000
H     2.658000000    -4.257000000     1.224000000
H     3.345000000    -4.853000000     2.433000000
O     1.136000000    -4.058000000     4.727000000
H     1.547000000    -4.920000000     4.654000000
H     1.319000000    -3.635000000     3.888000000
O    -2.628000000     2.841000000     4.090000000
H    -2.603000000     3.408000000     3.319000000
H    -2.367000000     1.980000000     3.762000000
O     5.306000000    -1.162000000     1.300000000
H     6.065000000    -1.140000000     0.718000000
H     5.637000000    -1.545000000     2.112000000
O    -3.625000000    -2.437000000     0.138000000
H    -4.453000000    -2.385000000     0.614000000
H    -3.296000000    -3.316000000     0.324000000
O    -3.386000000     2.090000000    -4.376000000
H    -3.922000000     2.706000000    -4.874000000
H    -4.019000000     1.556000000    -3.896000000
O     2.094000000    -6.637000000     4.341000000
H     2.935000000    -6.942000000     4.683000000
H     1.827000000    -7.315000000     3.721000000
O     2.988000000    -7.303000000    -0.108000000
H     2.756000000    -6.416000000     0.167000000
H     2.504000000    -7.435000000    -0.923000000
O    -1.255000000    -5.051000000    -2.021000000
H    -1.618000000    -5.082000000    -1.135000000
H    -1.503000000    -5.889000000    -2.411000000
O    -0.691000000     7.536000000    -2.318000000
H    -0.667000000     7.359000000    -3.258000000
H    -1.376000000     8.197000000    -2.216000000
O    -0.675000000    -8.232000000     0.703000000
H    -0.762000000    -9.126000000     1.035000000
H     0.104000000    -7.889000000     1.140000000
O     4.088000000     5.084000000    -0.622000000
H     3.398000000     5.216000000    -1.272000000
H     4.837000000     4.770000000    -1.128000000
O     0.137000000    -3.440000000    -3.837000000
H    -0.417000000    -3.379000000    -4.615000000
H    -0.452000000    -3.739000000    -3.145000000
O    -2.893000000     0.281000000     2.627000000
H    -2.189000000    -0.251000000     2.255000000
H    -3.271000000     0.737000000     1.875000000
O     1.969000000    -1.269000000    -3.517000000
H     1.279000000    -1.932000000    -3.540000000
H     1.566000000    -0.491000000    -3.902000000
O    -4.529000000     1.095000000     0.390000000
H    -4.103000000     0.411000000    -0.127000000
H    -5.441000000     0.812000000     0.457000000
O    -4.435000000    -1.782000000    -2.428000000
H    -3.972000000    -2.105000000    -1.655000000
H    -4.713000000    -2.574000000    -2.888000000
O     2.957000000    -0.991000000     4.124000000
H     2.240000000    -1.344000000     3.597000000
H     2.948000000    -0.052000000     3.942000000
O    -5.331000000     0.576000000    -3.230000000
H    -4.973000000    -0.275000000    -2.976000000
H    -6.210000000     0.379000000    -3.555000000
O     2.160000000    -1.771000000     6.478000000
H     1.279000000    -1.906000000     6.129000000
H     2.589000000    -1.210000000     5.832000000
O     2.656000000     1.781000000     4.973000000
H     2.863000000     1.928000000     4.050000000
H     1.700000000     1.745000000     5.002000000
O    -2.317000000     0.247000000    -6.268000000
H    -2.807000000     0.917000000    -5.791000000
H    -2.355000000     0.527000000    -7.182000000
O    -1.919000000    -4.598000000     0.874000000
H    -1.008000000    -4.365000000     0.694000000
H    -1.927000000    -4.830000000     1.803000000
O    -3.010000000     5.992000000    -4.378000000
H    -3.359000000     5.552000000    -3.603000000
H    -3.183000000     6.921000000    -4.225000000
O     3.410000000    -3.415000000    -2.536000000
H     2.740000000    -3.840000000    -2.001000000
H     2.993000000    -2.613000000    -2.851000000
O    -1.083000000    -1.460000000     5.304000000
H    -1.158000000    -1.764000000     4.399000000
H    -1.351000000    -2.212000000     5.832000000
O     0.097000000     0.263000000    -5.084000000
H     0.662000000     0.577000000    -5.790000000
H    -0.788000000     0.315000000    -5.444000000
O    -0.183000000     6.747000000    -4.868000000
H     0.106000000     6.867000000    -5.772000000
H    -0.405000000     5.817000000    -4.808000000
O    -0.131000000     4.501000000     5.394000000
H    -0.963000000     4.034000000     5.469000000
H     0.042000000     4.534000000     4.454000000
O     2.314000000     5.979000000    -2.632000000
H     1.868000000     5.157000000    -2.832000000
H     1.626000000     6.643000000    -2.680000000
O     1.133000000    -5.753000000    -4.673000000
H     0.528000000    -5.063000000    -4.400000000
H     0.582000000    -6.388000000    -5.130000000
O    -2.309000000     6.327000000    -0.212000000
H    -2.853000000     7.104000000    -0.086000000
H    -1.659000000     6.592000000    -0.863000000
O     2.778000000     1.509000000    -1.954000000
H     2.393000000     2.269000000    -2.392000000
H     2.059000000     1.136000000    -1.445000000
O     5.930000000    -4.568000000     0.439000000
H     6.445000000    -5.096000000     1.050000000
H     5.043000000    -4.584000000     0.798000000
O    -3.539000000    -2.480000000    -6.283000000
H    -3.144000000    -1.722000000    -5.852000000
H    -2.842000000    -3.135000000    -6.302000000
O     3.686000000     1.017000000     2.054000000
H     2.878000000     1.066000000     1.543000000
H     4.068000000     0.172000000     1.818000000
O     4.751000000    -3.061000000     4.340000000
H     5.086000000    -2.550000000     5.077000000
H     4.031000000    -2.534000000     3.993000000
O     3.566000000     3.877000000     1.753000000
H     3.553000000     4.342000000     0.916000000
H     3.755000000     2.968000000     1.519000000
O    -1.248000000     4.074000000    -4.756000000
H    -1.776000000     3.285000000    -4.879000000
H    -1.888000000     4.781000000    -4.681000000
O    -4.525000000     5.678000000    -1.991000000
H    -4.126000000     5.784000000    -1.127000000
H    -4.771000000     4.754000000    -2.029000000
O    -5.250000000     2.863000000    -1.759000000
H    -5.246000000     2.066000000    -2.290000000
H    -4.776000000     2.622000000    -0.963000000
O     1.441000000    -4.626000000    -1.245000000
H     0.566000000    -4.759000000    -1.611000000
H     1.286000000    -4.180000000    -0.412000000
O    -1.948000000    -5.296000000     3.537000000
H    -2.560000000    -5.952000000     3.872000000
H    -1.628000000    -4.846000000     4.319000000
O     0.115000000     1.057000000     5.306000000
H    -0.325000000     0.213000000     5.406000000
H     0.053000000     1.463000000     6.171000000
O     0.431000000     5.642000000     2.749000000
H     0.030000000     6.479000000     2.516000000
H     1.351000000     5.853000000     2.909000000
O     1.278000000     3.534000000    -3.674000000
H     1.733000000     3.224000000    -4.457000000
H     0.359000000     3.588000000    -3.936000000
