144
-2830.53592
O     2.605000000    -5.520000000     0.604000000
H     2.083000000    -4.719000000     0.565000000
H     2.342000000    -5.939000000     1.424000000
O     1.579000000    -4.684000000     5.276000000
H     1.557000000    -5.281000000     4.528000000
H     1.097000000    -3.912000000     4.980000000
O     6.767000000    -2.376000000     2.912000000
H     6.536000000    -2.986000000     2.212000000
H     7.620000000    -2.679000000     3.223000000
O    -3.837000000    -3.068000000     0.528000000
H    -3.419000000    -3.849000000     0.891000000
H    -4.566000000    -2.888000000     1.123000000
O    -3.636000000     1.886000000    -5.093000000
H    -4.167000000     1.439000000    -5.753000000
H    -3.949000000     1.538000000    -4.258000000
O     2.159000000    -6.945000000     3.134000000
H     2.784000000    -7.580000000     2.784000000
H     1.371000000    -7.457000000     3.314000000
O     1.178000000    -8.352000000    -0.979000000
H     1.381000000    -7.457000000    -0.708000000
H     0.225000000    -8.413000000    -0.911000000
O    -1.448000000    -7.100000000     0.063000000
H    -1.681000000    -6.568000000     0.823000000
H    -2.272000000    -7.505000000    -0.208000000
O    -1.933000000     7.729000000     0.262000000
H    -2.837000000     7.415000000     0.257000000
H    -1.547000000     7.363000000    -0.534000000
O    -6.879000000    -1.698000000    -1.263000000
H    -7.419000000    -2.456000000    -1.485000000
H    -6.134000000    -1.750000000    -1.862000000
O     3.278000000     3.354000000    -0.533000000
H     2.647000000     4.039000000    -0.757000000
H     3.303000000     2.790000000    -1.306000000
O    -0.338000000    -4.792000000    -4.087000000
H    -0.306000000    -4.782000000    -3.131000000
H    -1.242000000    -5.029000000    -4.294000000
O    -2.208000000    -0.037000000     1.815000000
H    -1.387000000     0.044000000     1.329000000
H    -2.878000000    -0.135000000     1.139000000
O     3.870000000    -1.007000000    -0.580000000
H     3.295000000    -0.352000000    -0.975000000
H     4.601000000    -1.086000000    -1.194000000
O    -4.625000000     0.252000000     0.643000000
H    -4.929000000    -0.441000000     1.230000000
H    -5.428000000     0.627000000     0.281000000
O     5.136000000    -1.453000000     5.035000000
H     5.649000000    -1.783000000     4.297000000
H     4.921000000    -0.552000000     4.792000000
O     4.757000000     1.164000000     4.274000000
H     4.155000000     1.490000000     3.604000000
H     4.615000000     1.741000000     5.024000000
O    -3.949000000    -2.190000000    -2.098000000
H    -3.821000000    -2.359000000    -1.164000000
H    -3.854000000    -3.047000000    -2.512000000
O     2.356000000    -1.566000000     4.274000000
H     2.363000000    -1.838000000     3.356000000
H     3.139000000    -1.969000000     4.649000000
O    -5.091000000     5.096000000    -2.777000000
H    -4.535000000     4.671000000    -2.124000000
H    -5.977000000     4.803000000    -2.565000000
O     0.806000000     0.596000000     4.780000000
H     1.103000000     1.418000000     4.388000000
H     1.382000000    -0.070000000     4.405000000
O    -2.594000000    -2.613000000     4.650000000
H    -2.133000000    -2.944000000     3.880000000
H    -2.221000000    -1.744000000     4.797000000
O    -1.080000000    -3.913000000     2.889000000
H    -0.443000000    -3.674000000     2.216000000
H    -1.132000000    -4.868000000     2.842000000
O    -0.679000000     7.140000000    -1.961000000
H    -0.200000000     7.903000000    -2.286000000
H    -0.336000000     6.407000000    -2.472000000
O    -0.206000000     6.979000000     2.596000000
H     0.552000000     7.555000000     2.502000000
H    -0.603000000     6.962000000     1.725000000
O     0.105000000     3.705000000    -5.964000000
H     0.238000000     2.811000000    -5.647000000
H    -0.801000000     3.909000000    -5.733000000
O     2.121000000     2.508000000     3.454000000
H     1.376000000     2.946000000     3.042000000
H     2.827000000     2.584000000     2.813000000
O     2.652000000    -5.976000000    -2.860000000
H     2.123000000    -6.506000000    -3.457000000
H     2.037000000    -5.692000000    -2.184000000
O    -1.159000000    -0.336000000    -5.573000000
H    -1.421000000    -0.862000000    -6.328000000
H    -1.958000000     0.120000000    -5.309000000
O     4.586000000    -3.741000000    -0.059000000
H     3.889000000    -4.339000000     0.211000000
H     4.174000000    -2.877000000    -0.058000000
O     0.116000000     5.187000000    -3.437000000
H    -0.729000000     4.866000000    -3.749000000
H     0.753000000     4.564000000    -3.786000000
O     0.940000000     4.964000000    -0.839000000
H     0.486000000     4.672000000    -1.630000000
H     0.695000000     5.884000000    -0.748000000
O     3.093000000     1.014000000    -2.704000000
H     2.324000000     0.914000000    -3.266000000
H     3.636000000     0.252000000    -2.905000000
O     4.256000000    -4.294000000     3.077000000
H     3.675000000    -5.045000000     2.958000000
H     3.852000000    -3.594000000     2.564000000
O    -4.607000000     4.809000000     1.929000000
H    -3.740000000     4.407000000     1.970000000
H    -4.475000000     5.698000000     2.258000000
O    -3.872000000    -4.414000000    -3.478000000
H    -3.815000000    -3.976000000    -4.327000000
H    -3.286000000    -5.167000000    -3.557000000
O     0.454000000     4.178000000     1.858000000
H     0.128000000     4.966000000     2.293000000
H     0.809000000     4.492000000     1.027000000
O     5.943000000    -0.173000000     1.260000000
H     5.125000000    -0.494000000     0.881000000
H     6.029000000    -0.652000000     2.085000000
O     6.664000000    -5.476000000     3.773000000
H     5.832000000    -5.038000000     3.593000000
H     6.423000000    -6.386000000     3.947000000
O     4.155000000     2.219000000     1.827000000
H     3.876000000     2.628000000     1.008000000
H     4.997000000     1.816000000     1.619000000
O    -2.210000000     4.125000000    -4.544000000
H    -2.702000000     3.304000000    -4.539000000
H    -2.850000000     4.788000000    -4.801000000
O    -4.752000000     2.857000000    -1.283000000
H    -4.372000000     2.140000000    -1.791000000
H    -4.716000000     2.554000000    -0.376000000
O    -4.339000000     0.385000000    -2.958000000
H    -4.252000000    -0.555000000    -2.802000000
H    -5.277000000     0.556000000    -2.879000000
O     0.217000000    -5.180000000    -1.352000000
H    -0.352000000    -5.901000000    -1.083000000
H     0.222000000    -4.586000000    -0.602000000
O    -1.288000000    -6.666000000     3.035000000
H    -1.574000000    -6.455000000     3.924000000
H    -1.122000000    -7.609000000     3.054000000
O    -2.128000000     0.139000000     4.524000000
H    -2.465000000    -0.049000000     3.648000000
H    -1.253000000     0.495000000     4.372000000
O    -2.342000000     3.409000000     2.111000000
H    -1.480000000     3.295000000     1.710000000
H    -2.687000000     2.520000000     2.194000000
O     0.976000000     1.281000000    -4.439000000
H     0.256000000     0.692000000    -4.668000000
H     1.593000000     1.199000000    -5.166000000
