144
-2838.09832
O    -1.530000000     3.536000000    -4.503000000
H    -1.112000000     2.724000000    -4.217000000
H    -2.457000000     3.312000000    -4.585000000
O     2.677000000     3.244000000     2.453000000
H     1.764000000     3.526000000     2.507000000
H     2.704000000     2.422000000     2.942000000
O    -0.790000000    -5.375000000    -2.720000000
H    -1.092000000    -4.966000000    -1.909000000
H    -0.027000000    -5.891000000    -2.458000000
O     3.776000000    -3.820000000    -4.981000000
H     3.179000000    -3.654000000    -4.252000000
H     4.035000000    -2.949000000    -5.283000000
O    -5.482000000     3.107000000    -0.337000000
H    -5.672000000     3.979000000    -0.682000000
H    -6.224000000     2.572000000    -0.617000000
O    -0.031000000     4.445000000     2.094000000
H    -0.106000000     4.568000000     1.148000000
H    -0.012000000     5.334000000     2.450000000
O    -1.448000000    -4.370000000     4.033000000
H    -2.275000000    -4.143000000     3.607000000
H    -0.926000000    -4.775000000     3.341000000
O     4.676000000    -0.076000000     0.788000000
H     5.479000000    -0.170000000     0.276000000
H     4.800000000    -0.659000000     1.537000000
O     3.602000000    -1.014000000     4.496000000
H     4.341000000    -1.021000000     5.104000000
H     3.987000000    -1.239000000     3.649000000
O     0.943000000    -7.500000000    -1.665000000
H     1.791000000    -7.310000000    -2.066000000
H     0.884000000    -6.889000000    -0.930000000
O    -1.784000000     2.957000000     3.689000000
H    -1.093000000     3.340000000     3.150000000
H    -2.565000000     2.988000000     3.136000000
O    -1.094000000    -0.021000000    -6.122000000
H    -0.715000000     0.502000000    -5.416000000
H    -0.536000000     0.158000000    -6.879000000
O    -3.727000000     0.158000000    -5.367000000
H    -3.540000000     0.366000000    -4.451000000
H    -2.886000000    -0.131000000    -5.723000000
O     2.053000000     3.925000000    -5.501000000
H     1.583000000     3.551000000    -6.247000000
H     1.364000000     4.233000000    -4.913000000
O     1.778000000    -4.610000000     6.276000000
H     1.074000000    -4.127000000     5.842000000
H     2.582000000    -4.243000000     5.909000000
O    -4.486000000     5.000000000     3.002000000
H    -5.287000000     5.513000000     2.900000000
H    -4.204000000     5.173000000     3.901000000
O    -2.914000000    -1.062000000     4.025000000
H    -3.583000000    -0.776000000     4.647000000
H    -2.092000000    -0.736000000     4.391000000
O    -4.037000000     3.484000000    -4.527000000
H    -4.075000000     4.057000000    -3.761000000
H    -4.946000000     3.224000000    -4.676000000
O     2.623000000    -5.701000000     0.280000000
H     2.555000000    -4.747000000     0.259000000
H     2.931000000    -5.900000000     1.165000000
O     2.225000000     1.268000000     4.338000000
H     2.677000000     0.447000000     4.532000000
H     2.179000000     1.720000000     5.181000000
O     2.066000000    -0.768000000    -4.281000000
H     2.565000000    -1.008000000    -3.500000000
H     1.224000000    -1.209000000    -4.172000000
O     3.942000000    -4.214000000     4.498000000
H     4.786000000    -4.348000000     4.929000000
H     4.109000000    -3.529000000     3.851000000
O    -4.041000000     5.563000000    -2.614000000
H    -4.244000000     6.498000000    -2.586000000
H    -3.143000000     5.503000000    -2.287000000
O    -0.414000000    -0.087000000     4.876000000
H     0.107000000    -0.888000000     4.838000000
H     0.229000000     0.612000000     4.995000000
O    -5.544000000    -1.728000000    -4.363000000
H    -5.767000000    -2.196000000    -5.169000000
H    -5.005000000    -0.993000000    -4.655000000
O     6.115000000    -2.899000000    -2.441000000
H     6.980000000    -2.720000000    -2.810000000
H     5.551000000    -2.223000000    -2.815000000
O    -1.841000000     3.934000000     6.226000000
H    -1.828000000     3.699000000     5.299000000
H    -1.697000000     3.107000000     6.685000000
O     4.876000000     2.835000000     0.552000000
H     4.023000000     3.167000000     0.831000000
H     4.818000000     1.888000000     0.680000000
O    -1.919000000     6.696000000    -1.126000000
H    -2.452000000     6.139000000    -0.559000000
H    -2.246000000     7.582000000    -0.968000000
O    -3.623000000     1.027000000    -2.926000000
H    -4.168000000     0.879000000    -2.153000000
H    -3.842000000     1.916000000    -3.206000000
O     3.063000000    -6.354000000     2.963000000
H     2.668000000    -6.849000000     3.681000000
H     3.463000000    -5.595000000     3.387000000
O     3.394000000    -6.255000000    -3.146000000
H     3.024000000    -5.513000000    -2.668000000
H     3.849000000    -5.859000000    -3.889000000
O     0.190000000     5.380000000    -3.938000000
H     0.066000000     5.719000000    -3.051000000
H    -0.540000000     4.774000000    -4.067000000
O     1.154000000    -2.262000000     4.802000000
H     1.013000000    -2.221000000     3.856000000
H     2.014000000    -1.862000000     4.933000000
O     4.680000000    -2.400000000     2.318000000
H     3.744000000    -2.363000000     2.123000000
H     5.081000000    -2.716000000     1.508000000
O     1.886000000    -3.844000000    -2.808000000
H     1.745000000    -3.471000000    -1.938000000
H     1.234000000    -3.414000000    -3.362000000
O    -2.793000000    -2.011000000     0.043000000
H    -3.378000000    -1.327000000     0.369000000
H    -2.283000000    -1.582000000    -0.644000000
O     0.337000000     1.781000000    -4.508000000
H     0.734000000     2.020000000    -5.345000000
H     1.004000000     1.255000000    -4.068000000
O    -3.849000000    -0.117000000     1.684000000
H    -3.643000000     0.801000000     1.507000000
H    -3.647000000    -0.233000000     2.612000000
O    -2.205000000    -3.770000000    -4.461000000
H    -3.093000000    -3.712000000    -4.108000000
H    -1.782000000    -4.450000000    -3.937000000
O     0.355000000    -4.828000000     1.996000000
H     0.946000000    -5.370000000     1.474000000
H     0.920000000    -4.154000000     2.375000000
O     3.398000000    -1.434000000    -1.982000000
H     3.191000000    -2.205000000    -1.454000000
H     3.893000000    -0.865000000    -1.393000000
O    -6.275000000    -1.312000000     1.256000000
H    -5.760000000    -0.505000000     1.267000000
H    -6.460000000    -1.491000000     2.178000000
O    -4.087000000     2.702000000     2.064000000
H    -4.357000000     3.550000000     2.415000000
H    -4.646000000     2.569000000     1.299000000
O    -1.266000000    -4.355000000    -0.150000000
H    -0.666000000    -4.406000000     0.593000000
H    -1.668000000    -3.489000000    -0.075000000
O    -3.137000000     4.915000000     0.095000000
H    -3.294000000     5.004000000     1.035000000
H    -3.725000000     4.211000000    -0.180000000
O     0.028000000    -2.454000000    -4.468000000
H    -0.882000000    -2.695000000    -4.294000000
H     0.017000000    -2.100000000    -5.357000000
O     6.796000000    -3.420000000     0.171000000
H     6.468000000    -3.307000000    -0.721000000
H     7.329000000    -4.214000000     0.131000000
