144
-2790.62135
O    -3.507000000     3.527000000    -1.520000000
H    -2.985000000     3.978000000    -0.857000000
H    -2.875000000     3.279000000    -2.195000000
O     1.637000000    -5.297000000     1.534000000
H     2.382000000    -4.702000000     1.609000000
H     0.891000000    -4.726000000     1.351000000
O    -4.298000000    -2.642000000     5.029000000
H    -4.081000000    -2.113000000     5.797000000
H    -3.456000000    -2.988000000     4.731000000
O     2.859000000     1.656000000    -3.678000000
H     3.113000000     0.820000000    -3.286000000
H     2.023000000     1.475000000    -4.107000000
O    -3.662000000     0.536000000     0.234000000
H    -2.873000000     0.782000000    -0.250000000
H    -3.336000000     0.210000000     1.073000000
O     3.894000000    -0.852000000    -0.169000000
H     3.416000000    -1.010000000    -0.983000000
H     3.847000000     0.095000000    -0.043000000
O    -3.536000000    -0.480000000     3.059000000
H    -3.609000000    -1.192000000     3.694000000
H    -3.327000000     0.291000000     3.586000000
O     0.377000000     0.738000000    -4.889000000
H    -0.313000000     0.116000000    -5.118000000
H     0.191000000     1.510000000    -5.424000000
O     4.661000000     2.912000000     2.213000000
H     4.367000000     3.821000000     2.271000000
H     5.184000000     2.779000000     3.004000000
O    -4.521000000    -2.595000000    -2.558000000
H    -4.647000000    -2.911000000    -1.663000000
H    -3.616000000    -2.824000000    -2.767000000
O     1.005000000     1.698000000     3.865000000
H     1.582000000     1.083000000     4.318000000
H     0.263000000     1.165000000     3.579000000
O     4.950000000     3.533000000    -3.354000000
H     4.152000000     3.015000000    -3.254000000
H     5.610000000     3.056000000    -2.850000000
O     4.167000000    -1.079000000     2.940000000
H     4.584000000    -1.940000000     2.983000000
H     4.053000000    -0.914000000     2.005000000
O     2.938000000    -7.676000000     0.964000000
H     2.374000000    -6.914000000     1.099000000
H     2.501000000    -8.179000000     0.277000000
O     0.086000000     6.921000000     0.167000000
H     0.169000000     6.993000000     1.118000000
H     0.716000000     7.554000000    -0.177000000
O     4.231000000    -3.574000000     1.112000000
H     4.841000000    -4.082000000     0.576000000
H     4.362000000    -2.669000000     0.831000000
O    -1.059000000    -1.454000000    -5.274000000
H    -1.807000000    -1.086000000    -5.744000000
H    -1.429000000    -1.785000000    -4.456000000
O    -4.122000000    -6.331000000    -1.625000000
H    -4.303000000    -7.221000000    -1.322000000
H    -3.805000000    -6.444000000    -2.521000000
O    -1.740000000    -2.873000000     4.197000000
H    -1.132000000    -3.152000000     3.512000000
H    -1.312000000    -2.120000000     4.604000000
O     2.027000000    -1.337000000     7.228000000
H     2.157000000    -0.492000000     7.659000000
H     2.108000000    -1.145000000     6.294000000
O    -1.547000000    -5.731000000     2.751000000
H    -1.743000000    -5.568000000     3.673000000
H    -1.178000000    -4.906000000     2.435000000
O    -1.927000000    -3.567000000    -3.337000000
H    -2.355000000    -4.107000000    -4.001000000
H    -1.255000000    -4.137000000    -2.963000000
O     0.414000000    -3.888000000    -5.602000000
H    -0.240000000    -3.245000000    -5.330000000
H     0.913000000    -4.074000000    -4.807000000
O     1.392000000    -4.661000000    -3.275000000
H     0.775000000    -5.031000000    -2.644000000
H     2.186000000    -5.185000000    -3.170000000
O    -1.851000000     2.723000000    -3.577000000
H    -2.650000000     2.796000000    -4.099000000
H    -1.155000000     2.596000000    -4.221000000
O     0.006000000     6.579000000    -5.733000000
H    -0.668000000     6.315000000    -5.105000000
H     0.425000000     7.338000000    -5.328000000
O    -4.075000000    -8.030000000     1.865000000
H    -4.020000000    -8.240000000     2.797000000
H    -3.198000000    -7.721000000     1.636000000
O    -1.474000000    -0.399000000     5.502000000
H    -1.929000000     0.403000000     5.244000000
H    -1.421000000    -0.348000000     6.457000000
O     1.512000000     6.222000000     3.123000000
H     0.845000000     5.549000000     2.989000000
H     1.022000000     7.044000000     3.148000000
O    -0.122000000    -5.382000000     5.868000000
H    -0.869000000    -5.960000000     5.712000000
H    -0.490000000    -4.639000000     6.347000000
O     4.441000000     6.623000000    -2.372000000
H     4.418000000     5.666000000    -2.368000000
H     3.803000000     6.881000000    -1.707000000
O     6.684000000    -0.141000000     1.885000000
H     7.321000000     0.378000000     2.376000000
H     5.836000000     0.236000000     2.120000000
O     1.520000000    -3.616000000     4.479000000
H     1.206000000    -4.489000000     4.714000000
H     1.108000000    -3.431000000     3.635000000
O     4.207000000     1.757000000    -0.203000000
H     4.345000000     2.231000000     0.617000000
H     5.015000000     1.895000000    -0.698000000
O    -1.845000000     7.205000000    -1.741000000
H    -2.360000000     7.014000000    -0.957000000
H    -0.937000000     7.085000000    -1.466000000
O    -5.522000000    -1.691000000     0.470000000
H    -4.990000000    -2.483000000     0.536000000
H    -4.887000000    -0.975000000     0.468000000
O     1.763000000    -1.485000000    -2.203000000
H     1.226000000    -2.228000000    -2.477000000
H     1.216000000    -1.014000000    -1.574000000
O    -0.716000000    -7.300000000     0.521000000
H    -1.218000000    -6.645000000     1.004000000
H    -0.433000000    -7.925000000     1.188000000
O     2.530000000     4.406000000     4.849000000
H     2.248000000     5.181000000     4.363000000
H     2.358000000     3.675000000     4.255000000
O    -0.626000000     2.943000000    -6.008000000
H    -1.315000000     3.576000000    -6.208000000
H     0.187000000     3.390000000    -6.245000000
O    -1.875000000    -7.577000000    -3.142000000
H    -1.610000000    -7.435000000    -2.233000000
H    -1.245000000    -7.072000000    -3.657000000
O     1.046000000    -7.290000000     3.557000000
H     0.258000000    -6.772000000     3.722000000
H     1.543000000    -6.773000000     2.923000000
O    -0.165000000    -5.481000000    -1.370000000
H    -0.591000000    -4.793000000    -0.859000000
H    -0.117000000    -6.228000000    -0.772000000
O    -4.837000000     0.534000000    -2.410000000
H    -4.748000000    -0.368000000    -2.718000000
H    -4.565000000     0.502000000    -1.493000000
O    -0.378000000     4.247000000     3.027000000
H    -0.630000000     4.175000000     2.107000000
H    -0.100000000     3.364000000     3.270000000
O     1.930000000    -1.020000000     4.554000000
H     2.594000000    -0.903000000     3.874000000
H     1.710000000    -1.950000000     4.517000000
O    -3.495000000    -3.760000000    -0.338000000
H    -2.603000000    -3.548000000    -0.064000000
H    -3.437000000    -4.658000000    -0.666000000
O    -1.818000000     4.772000000     0.351000000
H    -1.095000000     5.142000000    -0.155000000
H    -2.353000000     5.529000000     0.592000000
