144
-2791.48663
O     4.798000000    -0.915000000    -2.279000000
H     5.071000000    -0.612000000    -1.413000000
H     4.154000000    -1.600000000    -2.100000000
O     0.574000000     4.655000000     1.830000000
H     0.703000000     3.718000000     1.979000000
H    -0.102000000     4.906000000     2.459000000
O     4.521000000     1.231000000     2.794000000
H     5.156000000     1.943000000     2.717000000
H     4.119000000     1.175000000     1.927000000
O    -1.357000000    -2.150000000    -3.154000000
H    -1.329000000    -3.073000000    -3.407000000
H    -0.474000000    -1.826000000    -3.329000000
O     1.410000000    -4.458000000     0.743000000
H     1.200000000    -5.128000000     0.092000000
H     0.686000000    -4.496000000     1.368000000
O     0.534000000    -6.189000000     4.301000000
H     0.678000000    -5.243000000     4.312000000
H     0.477000000    -6.434000000     5.224000000
O     6.213000000     2.131000000    -4.904000000
H     6.891000000     2.065000000    -4.232000000
H     5.441000000     2.448000000    -4.435000000
O    -2.999000000     3.708000000    -2.561000000
H    -2.434000000     3.003000000    -2.878000000
H    -3.672000000     3.262000000    -2.047000000
O    -3.369000000     5.190000000     0.973000000
H    -3.687000000     4.435000000     0.479000000
H    -2.602000000     4.864000000     1.442000000
O     3.394000000     3.921000000     3.583000000
H     2.819000000     3.173000000     3.424000000
H     4.268000000     3.603000000     3.355000000
O     4.028000000     2.521000000    -3.480000000
H     3.331000000     2.378000000    -2.840000000
H     3.572000000     2.594000000    -4.318000000
O    -6.884000000     0.728000000    -0.908000000
H    -7.380000000     1.482000000    -0.589000000
H    -7.223000000    -0.012000000    -0.404000000
O     2.774000000     4.813000000     0.097000000
H     1.961000000     4.851000000     0.600000000
H     2.814000000     3.914000000    -0.227000000
O    -5.343000000    -5.161000000     1.339000000
H    -4.890000000    -4.894000000     0.539000000
H    -4.640000000    -5.354000000     1.959000000
O     8.056000000     2.189000000    -0.912000000
H     8.286000000     2.610000000    -0.083000000
H     7.166000000     2.489000000    -1.094000000
O     3.934000000    -1.921000000     3.902000000
H     4.359000000    -2.220000000     4.706000000
H     4.092000000    -2.624000000     3.272000000
O    -3.122000000     2.580000000     2.873000000
H    -2.489000000     1.893000000     3.082000000
H    -3.947000000     2.113000000     2.740000000
O     5.861000000     0.058000000     0.233000000
H     5.020000000     0.488000000     0.386000000
H     6.514000000     0.716000000     0.473000000
O    -5.240000000    -2.344000000    -3.976000000
H    -5.876000000    -2.867000000    -3.489000000
H    -5.385000000    -1.447000000    -3.674000000
O    -3.681000000    -5.108000000    -0.746000000
H    -4.285000000    -5.601000000    -1.301000000
H    -2.858000000    -5.593000000    -0.797000000
O    -5.175000000    -2.451000000     1.942000000
H    -4.314000000    -2.370000000     2.353000000
H    -5.346000000    -3.393000000     1.930000000
O     1.494000000     4.012000000    -3.267000000
H     0.828000000     3.367000000    -3.503000000
H     2.013000000     3.582000000    -2.587000000
O    -1.334000000     5.721000000    -1.627000000
H    -1.862000000     4.986000000    -1.941000000
H    -1.726000000     5.956000000    -0.786000000
O    -0.993000000    -4.741000000     1.735000000
H    -1.595000000    -5.283000000     2.246000000
H    -1.563000000    -4.178000000     1.212000000
O     6.000000000     3.679000000     2.684000000
H     5.438000000     4.285000000     2.201000000
H     6.803000000     3.632000000     2.165000000
O    -1.076000000     0.660000000     3.676000000
H    -1.157000000     0.839000000     4.613000000
H    -0.641000000    -0.192000000     3.632000000
O    -0.434000000     1.946000000    -4.127000000
H    -0.633000000     2.081000000    -5.053000000
H    -0.938000000     1.169000000    -3.884000000
O     6.021000000    -2.543000000     1.829000000
H     5.664000000    -1.942000000     1.175000000
H     5.604000000    -3.382000000     1.635000000
O    -5.820000000     0.088000000    -3.171000000
H    -6.228000000     0.197000000    -2.312000000
H    -6.225000000     0.763000000    -3.716000000
O     0.762000000    -2.467000000     5.446000000
H     1.307000000    -3.223000000     5.662000000
H     1.351000000    -1.869000000     4.986000000
O     4.477000000    -4.819000000     1.204000000
H     4.793000000    -5.507000000     0.618000000
H     3.595000000    -4.622000000     0.888000000
O    -4.604000000     2.428000000    -0.568000000
H    -4.983000000     1.587000000    -0.824000000
H    -4.634000000     2.423000000     0.389000000
O     1.243000000    -0.836000000    -3.073000000
H     1.214000000    -0.278000000    -2.296000000
H     2.000000000    -1.404000000    -2.932000000
O     3.158000000     5.937000000    -4.242000000
H     2.914000000     6.079000000    -5.156000000
H     2.521000000     5.299000000    -3.920000000
O     1.178000000     2.233000000     2.894000000
H     1.806000000     1.535000000     2.708000000
H     0.336000000     1.784000000     2.966000000
O     6.762000000    -0.465000000     3.771000000
H     6.448000000    -1.317000000     3.470000000
H     6.046000000     0.138000000     3.572000000
O     2.885000000    -2.638000000    -1.461000000
H     2.372000000    -2.897000000    -0.695000000
H     3.628000000    -3.241000000    -1.467000000
O    -5.802000000     1.675000000     2.021000000
H    -6.114000000     0.819000000     2.316000000
H    -6.315000000     2.304000000     2.527000000
O    -2.850000000     0.247000000    -3.701000000
H    -3.769000000     0.126000000    -3.461000000
H    -2.446000000    -0.606000000    -3.541000000
O    -7.339000000    -1.532000000     0.560000000
H    -7.271000000    -2.092000000    -0.213000000
H    -6.633000000    -1.829000000     1.134000000
O     0.783000000    -5.466000000    -1.963000000
H     0.379000000    -4.598000000    -1.971000000
H     0.102000000    -6.045000000    -1.622000000
O     4.606000000     6.981000000     0.947000000
H     5.007000000     6.548000000     1.701000000
H     4.167000000     6.276000000     0.472000000
O     3.099000000     7.119000000    -1.574000000
H     3.091000000     6.292000000    -1.092000000
H     3.347000000     6.874000000    -2.466000000
O     2.180000000     0.069000000     4.484000000
H     2.827000000    -0.437000000     3.994000000
H     2.548000000     0.139000000     5.365000000
O    -3.231000000    -3.590000000     3.489000000
H    -2.610000000    -3.320000000     4.166000000
H    -3.159000000    -4.544000000     3.465000000
O    -5.772000000    -1.647000000     4.486000000
H    -5.972000000    -0.723000000     4.640000000
H    -5.790000000    -1.741000000     3.534000000
O     2.724000000     2.533000000    -5.878000000
H     1.906000000     2.255000000    -5.466000000
H     3.161000000     1.716000000    -6.119000000
O     5.453000000     3.071000000    -1.203000000
H     4.782000000     2.781000000    -0.585000000
H     5.089000000     2.866000000    -2.065000000
