144
-2806.88762
O    -0.230000000     1.579000000    -6.199000000
H    -0.616000000     0.778000000    -6.552000000
H    -0.941000000     1.992000000    -5.709000000
O     0.234000000     2.421000000     2.188000000
H     0.874000000     2.874000000     1.639000000
H     0.166000000     1.547000000     1.804000000
O    -0.768000000    -1.433000000     6.209000000
H    -0.069000000    -1.976000000     5.845000000
H    -0.651000000    -1.496000000     7.157000000
O     2.238000000     3.962000000     0.556000000
H     2.818000000     4.720000000     0.629000000
H     2.759000000     3.230000000     0.886000000
O    -3.549000000    -0.112000000     4.273000000
H    -3.330000000    -0.712000000     3.560000000
H    -3.411000000    -0.624000000     5.069000000
O    -3.537000000     0.072000000    -3.778000000
H    -4.067000000     0.447000000    -3.075000000
H    -3.620000000     0.697000000    -4.499000000
O     1.810000000     0.406000000    -4.706000000
H     1.304000000     0.923000000    -5.332000000
H     1.159000000    -0.138000000    -4.262000000
O    -3.072000000    -4.428000000     0.022000000
H    -3.984000000    -4.297000000     0.278000000
H    -3.116000000    -4.683000000    -0.900000000
O    -1.706000000     3.989000000     3.646000000
H    -1.185000000     4.337000000     4.370000000
H    -1.064000000     3.585000000     3.062000000
O     1.777000000    -4.971000000     2.093000000
H     1.933000000    -4.798000000     3.021000000
H     0.936000000    -4.552000000     1.909000000
O     0.395000000    -3.084000000    -1.523000000
H     0.158000000    -3.228000000    -0.607000000
H     0.795000000    -2.215000000    -1.534000000
O     5.926000000     2.164000000     0.813000000
H     5.727000000     2.963000000     0.326000000
H     5.179000000     2.050000000     1.401000000
O    -0.242000000     5.934000000    -3.358000000
H     0.552000000     5.545000000    -3.725000000
H    -0.275000000     5.608000000    -2.459000000
O    -5.096000000     1.208000000    -1.703000000
H    -5.955000000     0.872000000    -1.449000000
H    -4.885000000     1.858000000    -1.032000000
O     5.627000000     3.780000000    -3.609000000
H     4.854000000     4.344000000    -3.638000000
H     5.274000000     2.891000000    -3.579000000
O     1.423000000     3.063000000     4.776000000
H     1.050000000     2.843000000     3.923000000
H     1.258000000     2.290000000     5.316000000
O     2.782000000     4.600000000    -3.315000000
H     2.406000000     4.211000000    -4.105000000
H     2.186000000     4.340000000    -2.613000000
O     1.711000000    -2.051000000     5.880000000
H     2.326000000    -2.533000000     5.327000000
H     2.210000000    -1.845000000     6.671000000
O    -5.812000000     1.135000000     4.139000000
H    -4.926000000     0.792000000     4.252000000
H    -5.685000000     2.054000000     3.904000000
O    -3.943000000     3.892000000    -3.447000000
H    -4.538000000     3.970000000    -4.193000000
H    -4.512000000     3.679000000    -2.708000000
O     7.041000000     0.100000000    -0.503000000
H     6.473000000    -0.584000000    -0.148000000
H     6.738000000     0.904000000    -0.082000000
O    -5.352000000    -4.461000000     2.440000000
H    -5.040000000    -4.839000000     3.262000000
H    -5.255000000    -3.516000000     2.559000000
O    -1.330000000    -1.473000000    -4.949000000
H    -1.626000000    -1.290000000    -5.841000000
H    -1.950000000    -1.003000000    -4.390000000
O     3.461000000     2.044000000     2.275000000
H     3.652000000     1.109000000     2.352000000
H     3.459000000     2.364000000     3.177000000
O    -0.462000000    -3.765000000     1.035000000
H    -0.978000000    -3.527000000     1.805000000
H    -1.113000000    -3.945000000     0.357000000
O     6.940000000     0.864000000    -3.282000000
H     6.935000000     0.744000000    -2.332000000
H     6.018000000     0.816000000    -3.535000000
O     0.926000000     1.011000000     6.436000000
H     0.899000000     0.876000000     7.383000000
H     0.635000000     0.178000000     6.066000000
O    -1.955000000     2.548000000    -4.459000000
H    -2.505000000     3.327000000    -4.537000000
H    -1.511000000     2.652000000    -3.617000000
O    -7.268000000    -0.886000000    -2.534000000
H    -6.970000000    -1.693000000    -2.954000000
H    -7.178000000    -1.056000000    -1.596000000
O     4.912000000    -2.697000000    -4.624000000
H     4.108000000    -3.190000000    -4.459000000
H     4.630000000    -1.784000000    -4.662000000
O    -1.848000000     1.774000000     5.845000000
H    -2.139000000     1.118000000     5.211000000
H    -1.127000000     1.352000000     6.312000000
O     4.258000000     1.392000000    -4.197000000
H     4.683000000     1.449000000    -5.053000000
H     3.459000000     0.892000000    -4.358000000
O    -5.530000000    -1.912000000     2.505000000
H    -6.381000000    -1.475000000     2.450000000
H    -4.919000000    -1.297000000     2.098000000
O    -1.864000000     3.256000000    -1.637000000
H    -2.561000000     3.589000000    -2.202000000
H    -2.200000000     3.375000000    -0.748000000
O    -0.951000000    -3.701000000    -3.658000000
H    -1.188000000    -2.816000000    -3.936000000
H    -0.388000000    -3.570000000    -2.896000000
O    -4.418000000    -2.534000000    -4.090000000
H    -4.591000000    -2.561000000    -5.031000000
H    -4.276000000    -1.606000000    -3.899000000
O    -2.964000000     3.462000000     0.848000000
H    -3.655000000     2.810000000     0.966000000
H    -2.561000000     3.542000000     1.712000000
O     5.127000000    -0.185000000     2.601000000
H     5.287000000    -1.034000000     2.190000000
H     5.688000000    -0.183000000     3.376000000
O    -1.597000000    -3.794000000     3.901000000
H    -2.063000000    -3.139000000     3.381000000
H    -1.601000000    -3.441000000     4.790000000
O     5.557000000    -2.013000000     0.505000000
H     5.176000000    -2.643000000     1.117000000
H     5.756000000    -2.528000000    -0.277000000
O     0.982000000     4.045000000    -5.736000000
H     0.828000000     3.104000000    -5.651000000
H     0.114000000     4.417000000    -5.894000000
O    -5.334000000    -1.789000000    -0.439000000
H    -4.683000000    -1.622000000     0.242000000
H    -4.857000000    -2.272000000    -1.114000000
O    -7.858000000    -0.307000000     2.617000000
H    -7.324000000     0.487000000     2.601000000
H    -8.736000000    -0.002000000     2.841000000
O    -4.793000000     1.630000000     1.069000000
H    -5.554000000     1.237000000     1.497000000
H    -4.154000000     0.920000000     1.019000000
O    -1.039000000    -6.298000000     4.312000000
H    -1.321000000    -5.570000000     3.758000000
H    -1.530000000    -6.184000000     5.126000000
O    -7.515000000    -3.924000000     0.648000000
H    -6.709000000    -4.021000000     1.155000000
H    -7.247000000    -4.068000000    -0.259000000
O     0.630000000     4.089000000    -1.321000000
H    -0.144000000     3.562000000    -1.121000000
H     1.174000000     4.022000000    -0.536000000
O     2.637000000    -4.026000000    -4.202000000
H     2.195000000    -4.369000000    -3.426000000
H     1.963000000    -3.524000000    -4.660000000
