144
-2784.69000
O    -2.485000000    -2.290000000    -0.515000000
H    -1.779000000    -1.806000000    -0.087000000
H    -2.353000000    -2.130000000    -1.450000000
O     0.678000000     7.145000000    -2.973000000
H     0.834000000     6.331000000    -2.495000000
H    -0.203000000     7.046000000    -3.335000000
O    -1.617000000    -3.995000000    -3.374000000
H    -0.747000000    -4.291000000    -3.105000000
H    -1.575000000    -3.041000000    -3.310000000
O     0.574000000    -3.750000000    -6.345000000
H     1.337000000    -3.752000000    -5.767000000
H     0.601000000    -2.894000000    -6.774000000
O    -2.869000000     7.774000000    -0.592000000
H    -2.280000000     7.225000000    -0.075000000
H    -3.535000000     7.169000000    -0.918000000
O    -1.392000000    -4.201000000     3.879000000
H    -1.763000000    -4.410000000     3.022000000
H    -0.499000000    -3.912000000     3.690000000
O     2.758000000     2.517000000     0.745000000
H     2.274000000     2.064000000     1.436000000
H     2.276000000     3.332000000     0.610000000
O    -1.925000000     5.443000000     0.525000000
H    -1.140000000     5.164000000     0.997000000
H    -2.512000000     5.766000000     1.209000000
O     3.182000000     3.418000000    -2.440000000
H     3.743000000     4.165000000    -2.233000000
H     3.736000000     2.652000000    -2.288000000
O    -5.317000000     3.457000000     1.390000000
H    -4.737000000     3.282000000     0.649000000
H    -4.891000000     4.173000000     1.863000000
O    -2.705000000     1.296000000    -3.547000000
H    -2.630000000     1.277000000    -4.502000000
H    -2.349000000     2.147000000    -3.296000000
O    -2.745000000     0.402000000     4.883000000
H    -3.340000000     1.081000000     4.565000000
H    -3.032000000    -0.396000000     4.438000000
O     0.425000000    -5.493000000    -2.418000000
H     1.051000000    -5.433000000    -1.696000000
H     0.897000000    -5.962000000    -3.106000000
O     0.633000000    -1.340000000     5.118000000
H     0.237000000    -0.480000000     4.977000000
H     1.226000000    -1.213000000     5.858000000
O     3.322000000    -0.324000000    -3.542000000
H     3.247000000     0.045000000    -2.663000000
H     2.936000000    -1.197000000    -3.470000000
O     3.512000000     1.660000000    -5.454000000
H     3.134000000     1.207000000    -6.207000000
H     3.454000000     1.027000000    -4.738000000
O     3.504000000    -6.439000000     1.739000000
H     2.729000000    -6.141000000     1.263000000
H     3.604000000    -7.356000000     1.483000000
O    -4.755000000     1.723000000    -1.672000000
H    -3.868000000     1.571000000    -1.997000000
H    -5.304000000     1.699000000    -2.456000000
O    -1.655000000     4.058000000    -2.590000000
H    -0.746000000     4.298000000    -2.410000000
H    -1.974000000     4.747000000    -3.173000000
O     0.103000000     1.323000000     5.397000000
H     0.277000000     1.745000000     6.238000000
H    -0.829000000     1.478000000     5.239000000
O    -2.181000000    -3.781000000    -6.205000000
H    -2.111000000    -4.005000000    -5.277000000
H    -1.312000000    -3.967000000    -6.563000000
O    -0.495000000     6.093000000     5.114000000
H    -0.844000000     6.354000000     5.966000000
H    -0.168000000     6.908000000     4.730000000
O     4.203000000    -0.011000000     2.453000000
H     3.511000000     0.374000000     2.991000000
H     3.762000000    -0.693000000     1.947000000
O    -2.134000000    -1.252000000    -7.190000000
H    -2.289000000    -2.168000000    -6.959000000
H    -1.480000000    -0.953000000    -6.558000000
O     1.679000000     4.888000000     0.852000000
H     2.318000000     5.546000000     0.579000000
H     1.759000000     4.856000000     1.805000000
O     5.437000000     1.722000000    -1.776000000
H     5.956000000     1.302000000    -2.462000000
H     4.787000000     1.064000000    -1.529000000
O     2.058000000     1.589000000     3.511000000
H     1.599000000     2.351000000     3.157000000
H     1.490000000     1.272000000     4.213000000
O    -2.299000000    -1.287000000    -3.448000000
H    -2.498000000    -0.445000000    -3.040000000
H    -1.671000000    -1.076000000    -4.139000000
O    -4.018000000     5.732000000     2.627000000
H    -4.683000000     5.897000000     3.295000000
H    -3.364000000     6.417000000     2.765000000
O     0.694000000     4.710000000    -1.749000000
H     1.001000000     4.765000000    -0.844000000
H     1.233000000     4.024000000    -2.142000000
O    -0.245000000     2.983000000    -6.657000000
H    -1.043000000     2.460000000    -6.579000000
H    -0.088000000     3.313000000    -5.772000000
O     1.196000000    -3.790000000     3.961000000
H     1.097000000    -3.023000000     4.525000000
H     1.689000000    -3.470000000     3.206000000
O     4.118000000    -2.305000000     0.658000000
H     4.960000000    -2.701000000     0.436000000
H     3.523000000    -2.606000000    -0.029000000
O     2.981000000    -3.555000000    -4.492000000
H     3.532000000    -3.830000000    -3.760000000
H     2.227000000    -3.134000000    -4.080000000
O    -6.811000000     1.152000000     0.432000000
H    -5.938000000     1.482000000     0.223000000
H    -6.980000000     1.469000000     1.320000000
O     6.072000000    -3.787000000    -0.127000000
H     6.408000000    -4.676000000    -0.011000000
H     5.529000000    -3.837000000    -0.914000000
O     3.600000000    -3.872000000     2.733000000
H     3.694000000    -3.167000000     2.092000000
H     3.617000000    -4.674000000     2.211000000
O     4.131000000    -4.183000000    -2.053000000
H     3.374000000    -3.824000000    -1.590000000
H     4.165000000    -5.100000000    -1.781000000
O    -3.700000000    -3.522000000     5.158000000
H    -2.837000000    -3.414000000     4.758000000
H    -4.316000000    -3.278000000     4.467000000
O     3.405000000     0.216000000    -0.830000000
H     2.975000000     0.947000000    -0.385000000
H     3.636000000    -0.390000000    -0.126000000
O    -4.770000000    -2.187000000    -4.229000000
H    -4.818000000    -1.615000000    -4.996000000
H    -3.882000000    -2.065000000    -3.896000000
O    -1.431000000     3.509000000     6.444000000
H    -0.897000000     4.224000000     6.791000000
H    -2.130000000     3.946000000     5.957000000
O    -4.182000000     2.846000000     4.407000000
H    -4.860000000     3.439000000     4.733000000
H    -3.645000000     3.391000000     3.832000000
O    -1.734000000    -4.600000000     1.265000000
H    -2.023000000    -3.838000000     0.764000000
H    -2.215000000    -5.334000000     0.883000000
O     3.855000000    -4.877000000    -7.082000000
H     3.467000000    -4.501000000    -6.292000000
H     4.394000000    -5.601000000    -6.764000000
O     0.033000000    -1.307000000    -4.867000000
H     0.588000000    -1.699000000    -4.193000000
H     0.619000000    -1.179000000    -5.614000000
O     0.995000000     4.631000000     3.397000000
H     0.256000000     5.154000000     3.709000000
H     1.585000000     4.579000000     4.148000000
O     1.276000000    -5.366000000     0.416000000
H     1.417000000    -4.549000000    -0.062000000
H     0.336000000    -5.380000000     0.595000000
