144
-2812.10810
O     5.097000000     0.138000000     0.766000000
H     6.033000000     0.138000000     0.962000000
H     4.801000000    -0.740000000     1.007000000
O    -2.372000000     2.399000000    -4.810000000
H    -2.058000000     2.493000000    -3.911000000
H    -2.455000000     3.297000000    -5.130000000
O    -4.290000000     2.893000000     2.191000000
H    -5.106000000     2.393000000     2.197000000
H    -3.650000000     2.311000000     2.600000000
O    -3.393000000     7.321000000    -4.179000000
H    -3.208000000     7.958000000    -3.489000000
H    -2.828000000     6.576000000    -3.976000000
O     0.732000000     4.704000000    -0.764000000
H     0.440000000     3.946000000    -1.270000000
H     1.362000000     4.346000000    -0.138000000
O     4.519000000     2.171000000    -0.864000000
H     5.365000000     2.606000000    -0.765000000
H     4.585000000     1.391000000    -0.314000000
O    -5.324000000     3.106000000    -4.794000000
H    -4.946000000     2.293000000    -4.458000000
H    -5.581000000     3.592000000    -4.010000000
O     3.668000000     0.729000000    -3.206000000
H     3.902000000     0.981000000    -2.313000000
H     3.631000000    -0.227000000    -3.184000000
O    -1.981000000    -7.581000000    -0.043000000
H    -2.577000000    -7.517000000    -0.789000000
H    -1.459000000    -6.780000000    -0.084000000
O     1.038000000     1.875000000     3.124000000
H     1.237000000     2.760000000     2.819000000
H     1.146000000     1.324000000     2.349000000
O    -0.206000000    -5.541000000     0.433000000
H    -0.056000000    -4.920000000    -0.280000000
H     0.647000000    -5.625000000     0.860000000
O    -0.794000000     5.840000000     1.245000000
H    -1.487000000     6.153000000     0.664000000
H    -0.175000000     5.399000000     0.664000000
O    -3.569000000    -0.505000000    -5.396000000
H    -3.546000000     0.135000000    -4.685000000
H    -3.879000000    -1.311000000    -4.983000000
O     4.824000000    -2.484000000     1.618000000
H     4.600000000    -2.595000000     2.542000000
H     5.673000000    -2.915000000     1.524000000
O     3.823000000    -3.151000000     4.075000000
H     3.021000000    -3.202000000     4.595000000
H     4.081000000    -4.063000000     3.944000000
O     5.367000000    -1.728000000    -1.601000000
H     5.312000000    -0.909000000    -1.108000000
H     6.136000000    -2.172000000    -1.242000000
O     1.669000000     2.933000000    -4.113000000
H     2.260000000     2.401000000    -3.580000000
H     0.826000000     2.879000000    -3.662000000
O    -4.434000000     1.269000000    -3.158000000
H    -3.687000000     1.736000000    -2.783000000
H    -4.968000000     1.027000000    -2.402000000
O     0.792000000     2.633000000     6.119000000
H    -0.144000000     2.570000000     6.308000000
H     0.875000000     2.332000000     5.214000000
O     2.571000000    -2.346000000    -3.959000000
H     1.745000000    -1.917000000    -3.734000000
H     2.876000000    -1.882000000    -4.739000000
O    -4.152000000     0.956000000     5.402000000
H    -3.894000000     1.656000000     6.002000000
H    -3.517000000     1.007000000     4.688000000
O     0.642000000    -3.802000000    -1.797000000
H     1.516000000    -4.190000000    -1.842000000
H     0.795000000    -2.859000000    -1.863000000
O     0.174000000    -0.376000000     4.864000000
H     0.668000000     0.304000000     4.406000000
H     0.831000000    -1.032000000     5.099000000
O     0.349000000     7.136000000    -2.190000000
H     0.620000000     6.368000000    -1.687000000
H     0.692000000     6.979000000    -3.070000000
O     0.299000000    -0.790000000    -3.301000000
H     0.565000000     0.129000000    -3.248000000
H    -0.509000000    -0.835000000    -2.790000000
O     1.186000000     6.010000000    -4.747000000
H     0.928000000     6.137000000    -5.661000000
H     1.845000000     5.317000000    -4.778000000
O    -3.615000000     4.568000000     0.142000000
H    -3.848000000     3.984000000     0.863000000
H    -3.149000000     4.008000000    -0.480000000
O    -2.387000000    -1.641000000    -2.529000000
H    -3.078000000    -2.233000000    -2.825000000
H    -1.984000000    -2.094000000    -1.788000000
O    -2.014000000     5.233000000    -3.197000000
H    -1.086000000     5.357000000    -3.396000000
H    -2.046000000     4.419000000    -2.696000000
O     4.451000000    -5.483000000     2.786000000
H     4.826000000    -5.162000000     1.967000000
H     5.088000000    -6.121000000     3.109000000
O     0.772000000     3.316000000    -6.533000000
H     1.001000000     3.036000000    -5.647000000
H    -0.103000000     2.955000000    -6.679000000
O    -2.597000000    -4.137000000     0.682000000
H    -2.500000000    -3.314000000     1.161000000
H    -1.892000000    -4.692000000     1.014000000
O    -3.998000000     7.039000000    -1.161000000
H    -4.777000000     7.057000000    -1.717000000
H    -4.034000000     6.187000000    -0.726000000
O    -1.242000000     0.997000000    -7.146000000
H    -1.667000000     1.419000000    -6.400000000
H    -1.645000000     0.130000000    -7.193000000
O     2.088000000    -5.428000000     1.607000000
H     2.498000000    -4.831000000     0.981000000
H     2.670000000    -5.416000000     2.366000000
O    -3.886000000    -4.276000000    -1.670000000
H    -3.414000000    -4.220000000    -0.839000000
H    -3.816000000    -5.196000000    -1.924000000
O     1.341000000    -2.720000000     5.511000000
H     0.754000000    -3.475000000     5.548000000
H     1.848000000    -2.770000000     6.322000000
O     3.092000000     0.987000000    -6.046000000
H     3.985000000     0.654000000    -5.947000000
H     2.984000000     1.601000000    -5.320000000
O    -2.848000000    -2.676000000     3.471000000
H    -2.208000000    -3.388000000     3.449000000
H    -2.808000000    -2.346000000     4.368000000
O    -5.400000000    -4.821000000     0.787000000
H    -5.616000000    -5.379000000     0.039000000
H    -4.448000000    -4.732000000     0.751000000
O    -2.241000000     1.721000000     3.627000000
H    -2.103000000     2.034000000     4.521000000
H    -1.381000000     1.407000000     3.347000000
O    -4.346000000    -0.738000000     2.195000000
H    -4.958000000    -0.470000000     2.880000000
H    -3.960000000    -1.550000000     2.522000000
O    -0.695000000    -4.477000000     3.214000000
H    -0.199000000    -4.837000000     2.478000000
H    -0.273000000    -4.845000000     3.990000000
O    -5.023000000     0.384000000    -0.321000000
H    -5.394000000    -0.475000000    -0.521000000
H    -4.893000000     0.373000000     0.628000000
O    -6.006000000     3.168000000    -1.109000000
H    -5.841000000     2.247000000    -0.906000000
H    -5.218000000     3.623000000    -0.812000000
O    -1.800000000    -2.107000000     5.874000000
H    -1.221000000    -1.643000000     5.269000000
H    -1.871000000    -1.526000000     6.631000000
O     2.536000000     3.301000000     0.657000000
H     3.082000000     2.824000000     0.032000000
H     3.126000000     3.505000000     1.383000000
O     3.387000000    -4.118000000    -0.731000000
H     3.881000000    -3.967000000     0.074000000
H     4.025000000    -3.989000000    -1.432000000
