144
-2813.70112
O     4.755000000     3.387000000    -0.406000000
H     5.634000000     3.499000000    -0.044000000
H     4.358000000     4.256000000    -0.344000000
O     0.764000000     4.569000000     3.175000000
H     1.521000000     3.989000000     3.091000000
H     0.050000000     3.993000000     3.450000000
O    -5.033000000     3.899000000    -0.353000000
H    -4.089000000     4.043000000    -0.291000000
H    -5.134000000     3.280000000    -1.076000000
O    -0.229000000    -2.645000000    -4.223000000
H     0.407000000    -2.034000000    -3.850000000
H    -1.008000000    -2.111000000    -4.383000000
O     0.344000000     4.694000000     0.423000000
H     1.161000000     5.000000000     0.029000000
H     0.530000000     4.658000000     1.361000000
O     5.887000000    -1.779000000     0.117000000
H     5.233000000    -1.397000000    -0.468000000
H     6.204000000    -2.551000000    -0.350000000
O     3.176000000    -0.586000000    -1.975000000
H     3.095000000     0.367000000    -2.014000000
H     3.957000000    -0.781000000    -2.492000000
O     0.354000000     0.325000000    -6.966000000
H     0.217000000     0.320000000    -6.019000000
H    -0.511000000     0.509000000    -7.332000000
O    -4.834000000    -1.276000000    -3.979000000
H    -4.771000000    -0.636000000    -4.688000000
H    -4.151000000    -1.017000000    -3.361000000
O    -2.897000000     1.689000000     1.170000000
H    -2.087000000     1.646000000     1.679000000
H    -3.262000000     0.806000000     1.226000000
O    -7.362000000    -2.559000000    -3.834000000
H    -6.587000000    -2.033000000    -4.030000000
H    -7.068000000    -3.464000000    -3.929000000
O    -6.061000000    -5.907000000    -2.306000000
H    -5.257000000    -5.668000000    -1.845000000
H    -6.763000000    -5.542000000    -1.768000000
O     4.005000000    -0.746000000     5.980000000
H     3.424000000    -0.404000000     6.659000000
H     4.043000000    -0.050000000     5.324000000
O    -0.071000000     0.933000000     5.955000000
H    -0.090000000     0.016000000     5.683000000
H    -0.854000000     1.040000000     6.495000000
O    -1.916000000     0.036000000    -4.868000000
H    -1.654000000     0.955000000    -4.813000000
H    -2.328000000    -0.147000000    -4.023000000
O    -6.999000000    -4.324000000     0.033000000
H    -6.896000000    -4.796000000     0.859000000
H    -6.298000000    -3.671000000     0.042000000
O     1.091000000    -5.584000000     1.463000000
H     1.402000000    -5.326000000     0.595000000
H     1.463000000    -6.456000000     1.600000000
O     2.210000000     2.162000000    -3.498000000
H     1.308000000     2.041000000    -3.792000000
H     2.246000000     3.071000000    -3.201000000
O     6.002000000     2.344000000     2.110000000
H     6.428000000     2.974000000     2.691000000
H     6.718000000     1.801000000     1.779000000
O     2.035000000    -4.024000000     4.115000000
H     1.929000000    -4.175000000     3.176000000
H     1.945000000    -4.892000000     4.509000000
O    -4.758000000     1.932000000    -2.186000000
H    -4.025000000     1.328000000    -2.303000000
H    -5.462000000     1.388000000    -1.831000000
O     2.300000000    -4.830000000    -0.982000000
H     2.147000000    -3.887000000    -1.044000000
H     2.451000000    -5.108000000    -1.886000000
O    -2.377000000     4.080000000    -0.233000000
H    -1.424000000     4.036000000    -0.313000000
H    -2.638000000     3.194000000     0.017000000
O     3.924000000     5.617000000     1.900000000
H     3.553000000     4.886000000     2.395000000
H     3.165000000     6.062000000     1.524000000
O    -3.610000000    -5.978000000    -0.843000000
H    -3.006000000    -5.237000000    -0.892000000
H    -3.081000000    -6.735000000    -1.096000000
O     3.063000000     3.431000000     3.418000000
H     3.356000000     2.519000000     3.402000000
H     3.513000000     3.813000000     4.171000000
O    -4.807000000    -0.104000000     0.569000000
H    -4.471000000    -0.556000000    -0.204000000
H    -5.738000000    -0.324000000     0.590000000
O    -0.325000000     2.530000000    -4.984000000
H    -0.693000000     3.251000000    -4.473000000
H    -0.137000000     2.916000000    -5.840000000
O    -1.561000000    -4.032000000    -1.385000000
H    -1.071000000    -3.729000000    -2.149000000
H    -2.214000000    -3.350000000    -1.233000000
O     4.770000000     1.709000000    -4.401000000
H     4.940000000     0.767000000    -4.418000000
H     3.935000000     1.794000000    -3.942000000
O    -2.184000000     4.072000000    -3.011000000
H    -2.957000000     3.624000000    -3.355000000
H    -2.313000000     4.075000000    -2.062000000
O    -6.882000000     0.575000000    -1.548000000
H    -7.527000000     0.771000000    -2.228000000
H    -7.392000000     0.179000000    -0.842000000
O    -1.414000000    -4.514000000     1.494000000
H    -0.486000000    -4.685000000     1.656000000
H    -1.458000000    -4.293000000     0.563000000
O     2.051000000     4.792000000    -2.517000000
H     1.382000000     5.468000000    -2.625000000
H     2.754000000     5.225000000    -2.033000000
O    -1.843000000     5.280000000    -5.341000000
H    -2.333000000     4.599000000    -5.803000000
H    -1.794000000     4.968000000    -4.437000000
O     1.010000000    -2.256000000    -1.547000000
H     0.371000000    -1.740000000    -1.055000000
H     1.764000000    -1.675000000    -1.643000000
O    -0.886000000     1.398000000     2.773000000
H    -0.803000000     1.173000000     3.700000000
H    -0.586000000     0.617000000     2.309000000
O     5.780000000     1.026000000    -1.387000000
H     5.275000000     1.801000000    -1.139000000
H     6.385000000     0.892000000    -0.658000000
O    -3.704000000    -3.898000000     2.789000000
H    -2.855000000    -4.208000000     2.476000000
H    -4.095000000    -3.463000000     2.031000000
O    -2.128000000    -6.006000000    -3.937000000
H    -2.803000000    -5.456000000    -3.538000000
H    -2.598000000    -6.529000000    -4.587000000
O    -4.493000000    -0.313000000    -6.623000000
H    -4.436000000    -1.071000000    -7.205000000
H    -3.613000000    -0.226000000    -6.257000000
O     0.229000000    -1.716000000     5.568000000
H     0.267000000    -2.487000000     6.135000000
H     0.927000000    -1.856000000     4.928000000
O    -4.002000000    -3.919000000    -3.445000000
H    -3.775000000    -3.022000000    -3.200000000
H    -4.608000000    -3.820000000    -4.180000000
O     4.349000000     0.930000000     3.834000000
H     4.532000000     0.034000000     3.552000000
H     4.795000000     1.480000000     3.190000000
O     7.533000000     0.340000000     0.748000000
H     7.209000000    -0.551000000     0.614000000
H     8.453000000     0.301000000     0.488000000
O    -4.939000000    -2.922000000     0.654000000
H    -5.041000000    -1.988000000     0.836000000
H    -4.297000000    -2.960000000    -0.055000000
O     5.988000000    -1.223000000     2.919000000
H     6.392000000    -2.052000000     3.175000000
H     5.879000000    -1.291000000     1.970000000
O    -3.443000000    -1.619000000     4.376000000
H    -4.252000000    -1.109000000     4.408000000
H    -3.644000000    -2.349000000     3.790000000
