144
-2803.82876
O     1.292000000     4.323000000    -2.575000000
H     0.369000000     4.507000000    -2.396000000
H     1.277000000     3.544000000    -3.132000000
O     3.452000000     4.424000000    -1.071000000
H     2.678000000     4.521000000    -1.627000000
H     3.127000000     4.559000000    -0.181000000
O    -3.718000000     2.349000000    -4.623000000
H    -3.087000000     2.004000000    -5.255000000
H    -3.251000000     2.337000000    -3.788000000
O    -2.703000000    -0.531000000    -4.966000000
H    -2.697000000    -1.386000000    -5.396000000
H    -2.890000000    -0.726000000    -4.047000000
O     2.916000000     5.066000000     1.492000000
H     3.820000000     5.379000000     1.480000000
H     2.693000000     5.012000000     2.421000000
O    -3.007000000    -6.720000000    -3.531000000
H    -3.479000000    -6.473000000    -2.736000000
H    -2.654000000    -7.589000000    -3.340000000
O    -1.729000000    -2.118000000     3.663000000
H    -2.572000000    -1.864000000     4.038000000
H    -1.773000000    -1.822000000     2.753000000
O    -2.103000000     3.699000000     1.824000000
H    -1.229000000     3.948000000     1.523000000
H    -2.696000000     4.071000000     1.171000000
O     2.875000000    -6.000000000     0.274000000
H     2.220000000    -6.621000000     0.593000000
H     2.967000000    -6.206000000    -0.657000000
O     4.109000000    -4.021000000    -1.826000000
H     3.904000000    -3.855000000    -0.906000000
H     3.349000000    -3.690000000    -2.304000000
O    -2.123000000     4.550000000     4.364000000
H    -1.893000000     4.127000000     3.537000000
H    -2.373000000     3.828000000     4.941000000
O    -5.171000000     0.972000000     1.931000000
H    -5.458000000     1.880000000     2.031000000
H    -4.227000000     1.000000000     2.085000000
O     7.790000000     2.305000000    -2.358000000
H     6.934000000     2.337000000    -1.932000000
H     8.269000000     1.625000000    -1.883000000
O     3.965000000     1.901000000     2.572000000
H     3.713000000     1.725000000     3.478000000
H     4.534000000     2.669000000     2.626000000
O    -4.546000000    -4.276000000     0.457000000
H    -4.801000000    -3.686000000     1.166000000
H    -3.821000000    -3.826000000     0.021000000
O    -1.868000000    -7.981000000     0.395000000
H    -1.795000000    -7.149000000     0.862000000
H    -2.611000000    -7.861000000    -0.196000000
O    -3.819000000    -1.190000000     5.326000000
H    -3.521000000    -0.378000000     4.917000000
H    -4.709000000    -1.311000000     4.996000000
O     4.603000000    -2.636000000     0.565000000
H     5.466000000    -2.278000000     0.358000000
H     4.165000000    -1.939000000     1.054000000
O    -5.640000000    -0.843000000    -0.409000000
H    -4.910000000    -1.230000000     0.076000000
H    -5.268000000    -0.618000000    -1.262000000
O     1.714000000     0.239000000     4.453000000
H     1.855000000     0.256000000     5.400000000
H     1.448000000    -0.661000000     4.266000000
O     1.452000000    -2.504000000     4.125000000
H     1.671000000    -3.052000000     3.372000000
H     0.532000000    -2.272000000     3.993000000
O    -3.366000000    -2.805000000    -2.467000000
H    -4.148000000    -3.315000000    -2.257000000
H    -2.929000000    -2.679000000    -1.625000000
O     3.493000000    -0.564000000     1.908000000
H     2.619000000    -0.515000000     2.295000000
H     3.759000000     0.349000000     1.801000000
O    -2.218000000    -5.230000000     1.537000000
H    -1.709000000    -4.535000000     1.121000000
H    -3.128000000    -4.948000000     1.447000000
O    -4.994000000     3.041000000    -1.646000000
H    -5.540000000     2.670000000    -2.339000000
H    -4.227000000     2.469000000    -1.614000000
O     4.642000000     6.399000000    -2.875000000
H     4.757000000     7.052000000    -2.185000000
H     4.233000000     5.654000000    -2.434000000
O    -5.172000000    -4.946000000     3.658000000
H    -4.639000000    -5.181000000     4.418000000
H    -4.790000000    -4.126000000     3.343000000
O     1.220000000     2.613000000     3.193000000
H     1.322000000     1.777000000     3.649000000
H     2.050000000     2.738000000     2.733000000
O    -5.705000000    -4.037000000    -2.151000000
H    -5.669000000    -3.931000000    -1.201000000
H    -6.626000000    -3.902000000    -2.372000000
O    -8.010000000    -2.139000000     0.396000000
H    -7.216000000    -1.659000000     0.161000000
H    -7.698000000    -2.872000000     0.927000000
O     6.509000000    -1.282000000    -0.712000000
H     6.359000000    -1.412000000    -1.649000000
H     7.392000000    -0.917000000    -0.659000000
O     1.135000000    -4.327000000     2.013000000
H     1.445000000    -4.491000000     1.122000000
H     0.826000000    -5.180000000     2.320000000
O    -1.489000000    -4.794000000     4.245000000
H    -1.662000000    -4.943000000     3.315000000
H    -1.262000000    -3.866000000     4.300000000
O    -4.172000000    -6.745000000    -0.702000000
H    -4.918000000    -7.253000000    -0.383000000
H    -4.345000000    -5.853000000    -0.402000000
O    -5.266000000    -2.256000000     2.283000000
H    -4.441000000    -1.947000000     1.907000000
H    -5.768000000    -1.458000000     2.447000000
O    -2.253000000     2.067000000    -2.297000000
H    -1.996000000     2.861000000    -1.827000000
H    -1.484000000     1.499000000    -2.244000000
O     1.951000000    -3.394000000    -3.369000000
H     2.111000000    -2.459000000    -3.241000000
H     1.109000000    -3.553000000    -2.943000000
O    -1.332000000     4.415000000    -1.134000000
H    -2.186000000     4.777000000    -0.899000000
H    -0.749000000     4.699000000    -0.429000000
O     4.479000000     2.755000000    -3.342000000
H     4.401000000     3.241000000    -2.521000000
H     3.732000000     2.156000000    -3.337000000
O     1.747000000     1.833000000    -3.703000000
H     2.102000000     0.950000000    -3.600000000
H     1.876000000     2.037000000    -4.629000000
O     5.661000000     2.727000000    -0.459000000
H     4.882000000     2.287000000    -0.117000000
H     6.234000000     2.824000000     0.302000000
O    -7.711000000     0.957000000     1.323000000
H    -6.768000000     0.914000000     1.484000000
H    -7.816000000     0.625000000     0.431000000
O    -5.545000000    -0.987000000    -3.040000000
H    -6.327000000    -1.534000000    -3.111000000
H    -4.824000000    -1.609000000    -2.946000000
O     3.199000000    -0.872000000    -3.278000000
H     4.013000000    -0.837000000    -3.781000000
H     3.474000000    -0.754000000    -2.369000000
O    -3.732000000     5.038000000     0.245000000
H    -4.451000000     4.591000000    -0.201000000
H    -4.154000000     5.746000000     0.732000000
O     0.291000000     5.061000000     1.086000000
H     0.095000000     5.631000000     1.830000000
H     1.243000000     5.104000000     0.995000000
O    -0.705000000    -3.834000000    -2.429000000
H    -1.403000000    -3.661000000    -3.061000000
H    -1.108000000    -3.668000000    -1.576000000
O    -2.603000000     1.111000000     3.018000000
H    -2.524000000     2.060000000     2.923000000
H    -2.091000000     0.906000000     3.801000000
