144
-2831.61834
O     3.252000000     1.639000000     2.598000000
H     3.641000000     1.359000000     1.769000000
H     3.685000000     1.100000000     3.260000000
O    -1.403000000     3.906000000    -2.794000000
H    -1.274000000     4.690000000    -3.327000000
H    -1.295000000     4.208000000    -1.893000000
O     2.148000000    -0.234000000    -3.317000000
H     2.802000000     0.014000000    -2.664000000
H     2.333000000     0.330000000    -4.068000000
O    -3.160000000    -4.006000000     3.783000000
H    -2.545000000    -4.677000000     3.485000000
H    -3.095000000    -3.313000000     3.127000000
O    -6.847000000     0.014000000    -0.221000000
H    -6.913000000     0.726000000     0.416000000
H    -6.089000000    -0.494000000     0.066000000
O     4.393000000     2.227000000    -6.211000000
H     3.558000000     1.834000000    -5.958000000
H     4.454000000     3.022000000    -5.680000000
O     0.692000000    -4.401000000     0.408000000
H    -0.018000000    -4.903000000     0.008000000
H     0.252000000    -3.798000000     1.007000000
O     3.446000000     3.973000000     0.283000000
H     4.027000000     3.342000000     0.707000000
H     3.341000000     3.641000000    -0.609000000
O    -2.913000000     1.986000000    -6.269000000
H    -2.064000000     2.199000000    -5.881000000
H    -2.701000000     1.640000000    -7.136000000
O     4.994000000     1.344000000     0.242000000
H     4.443000000     0.951000000    -0.434000000
H     5.837000000     1.485000000    -0.188000000
O    -5.869000000    -4.135000000     4.640000000
H    -6.513000000    -4.307000000     3.953000000
H    -5.043000000    -4.459000000     4.281000000
O    -3.067000000     3.915000000     2.310000000
H    -3.227000000     2.980000000     2.180000000
H    -3.940000000     4.309000000     2.310000000
O     3.951000000     3.890000000    -4.013000000
H     3.835000000     4.487000000    -3.274000000
H     4.891000000     3.712000000    -4.032000000
O    -1.336000000    -5.767000000     2.334000000
H    -0.563000000    -6.293000000     2.539000000
H    -1.063000000    -4.865000000     2.501000000
O     5.226000000    -3.112000000     1.101000000
H     4.689000000    -3.587000000     0.467000000
H     5.400000000    -3.749000000     1.794000000
O     3.824000000    -2.409000000    -3.310000000
H     3.020000000    -1.890000000    -3.341000000
H     3.578000000    -3.202000000    -2.832000000
O     1.679000000     1.616000000    -5.471000000
H     0.827000000     1.927000000    -5.166000000
H     1.498000000     1.214000000    -6.321000000
O     1.608000000     5.107000000    -4.933000000
H     0.919000000     4.634000000    -5.400000000
H     2.250000000     4.435000000    -4.707000000
O    -3.219000000     1.733000000     5.663000000
H    -3.153000000     2.654000000     5.411000000
H    -2.696000000     1.269000000     5.009000000
O     4.970000000     0.268000000    -2.361000000
H     5.205000000     0.196000000    -3.286000000
H     5.257000000    -0.560000000    -1.976000000
O    -0.276000000    -3.627000000     6.474000000
H     0.678000000    -3.704000000     6.483000000
H    -0.465000000    -3.089000000     5.705000000
O    -3.953000000    -2.944000000     6.418000000
H    -3.656000000    -2.913000000     5.508000000
H    -4.828000000    -3.329000000     6.371000000
O     0.733000000     2.344000000     2.768000000
H     0.452000000     2.155000000     1.872000000
H     1.659000000     2.104000000     2.785000000
O     1.949000000     5.496000000     2.936000000
H     1.824000000     6.202000000     2.301000000
H     2.092000000     4.715000000     2.400000000
O     3.543000000    -4.583000000    -0.799000000
H     2.590000000    -4.503000000    -0.767000000
H     3.706000000    -5.525000000    -0.743000000
O     4.116000000    -0.820000000     4.157000000
H     3.870000000    -1.148000000     5.022000000
H     4.364000000    -1.603000000     3.665000000
O     2.470000000    -5.085000000     4.697000000
H     2.523000000    -5.569000000     3.873000000
H     2.167000000    -4.213000000     4.444000000
O    -0.024000000    -2.089000000    -3.468000000
H     0.845000000    -1.691000000    -3.519000000
H    -0.496000000    -1.551000000    -2.832000000
O    -5.024000000    -1.672000000     1.173000000
H    -5.212000000    -2.307000000     0.482000000
H    -4.151000000    -1.908000000     1.484000000
O    -1.956000000    -5.886000000     5.856000000
H    -2.402000000    -5.039000000     5.841000000
H    -1.044000000    -5.673000000     6.055000000
O     1.154000000    -2.677000000     4.182000000
H     0.972000000    -1.761000000     4.393000000
H     0.905000000    -2.765000000     3.262000000
O    -2.037000000    -0.207000000     3.948000000
H    -1.939000000    -1.004000000     3.427000000
H    -1.142000000     0.032000000     4.190000000
O    -0.070000000     3.635000000    -6.663000000
H    -0.457000000     4.391000000    -7.104000000
H     0.625000000     3.343000000    -7.253000000
O    -0.738000000     1.947000000    -4.397000000
H    -0.807000000     2.902000000    -4.381000000
H    -0.374000000     1.720000000    -3.541000000
O    -4.923000000    -6.075000000     0.852000000
H    -4.372000000    -6.798000000     1.152000000
H    -5.366000000    -5.769000000     1.643000000
O    -4.364000000     0.906000000     2.714000000
H    -4.424000000     0.163000000     2.114000000
H    -3.602000000     0.712000000     3.260000000
O    -3.738000000    -4.480000000    -2.234000000
H    -2.808000000    -4.409000000    -2.016000000
H    -3.748000000    -4.720000000    -3.161000000
O     1.636000000     7.403000000    -3.213000000
H     2.147000000     7.160000000    -2.441000000
H     1.817000000     6.710000000    -3.848000000
O     2.411000000     6.616000000    -0.760000000
H     2.508000000     5.791000000    -0.284000000
H     2.173000000     7.254000000    -0.087000000
O     0.552000000     0.106000000     4.759000000
H     0.663000000     0.464000000     5.640000000
H     0.655000000     0.859000000     4.179000000
O    -3.894000000     2.585000000    -3.120000000
H    -3.037000000     3.001000000    -3.032000000
H    -3.876000000     2.179000000    -3.987000000
O     2.038000000    -5.966000000     2.038000000
H     1.502000000    -5.329000000     1.565000000
H     2.478000000    -6.467000000     1.351000000
O    -5.733000000    -3.811000000    -0.560000000
H    -5.953000000    -4.604000000    -0.071000000
H    -5.119000000    -4.106000000    -1.232000000
O    -1.610000000     4.825000000     0.043000000
H    -2.021000000     4.327000000     0.750000000
H    -1.529000000     5.713000000     0.391000000
O     4.456000000     5.545000000    -2.143000000
H     3.832000000     6.152000000    -1.745000000
H     5.220000000     5.573000000    -1.567000000
O    -1.715000000    -5.802000000    -0.474000000
H    -1.938000000    -6.680000000    -0.782000000
H    -1.906000000    -5.821000000     0.464000000
O    -6.218000000     2.668000000     1.607000000
H    -5.501000000     2.057000000     1.776000000
H    -6.300000000     3.172000000     2.416000000
O    -3.824000000     2.159000000    -0.520000000
H    -4.423000000     2.842000000    -0.219000000
H    -3.898000000     2.179000000    -1.475000000
