144
-2812.33767
O     3.262000000     1.423000000     2.479000000
H     3.437000000     0.904000000     1.695000000
H     4.122000000     1.544000000     2.883000000
O    -1.847000000     4.900000000    -3.930000000
H    -1.977000000     5.810000000    -4.200000000
H    -1.725000000     4.947000000    -2.982000000
O    -0.661000000     2.462000000     4.963000000
H    -0.647000000     1.834000000     4.240000000
H     0.178000000     2.919000000     4.900000000
O     1.196000000     0.100000000    -3.826000000
H     1.629000000     0.908000000    -3.550000000
H     0.610000000     0.371000000    -4.532000000
O    -4.321000000    -4.185000000     2.509000000
H    -4.468000000    -4.811000000     1.800000000
H    -3.723000000    -3.537000000     2.137000000
O     3.238000000     0.884000000    -6.137000000
H     2.285000000     0.938000000    -6.213000000
H     3.424000000     1.177000000    -5.245000000
O     0.759000000    -5.436000000    -0.522000000
H     0.354000000    -5.964000000    -1.209000000
H     0.028000000    -4.973000000    -0.113000000
O     2.281000000     3.984000000     2.044000000
H     2.663000000     3.170000000     2.372000000
H     2.478000000     3.980000000     1.107000000
O     4.229000000     4.589000000    -5.707000000
H     4.877000000     4.451000000    -5.016000000
H     3.386000000     4.443000000    -5.277000000
O    -0.119000000    -5.159000000    -3.607000000
H    -1.037000000    -5.362000000    -3.429000000
H    -0.070000000    -4.204000000    -3.556000000
O     4.819000000    -0.296000000     0.328000000
H     5.419000000     0.408000000     0.082000000
H     5.192000000    -0.660000000     1.130000000
O    -5.626000000    -4.139000000     4.971000000
H    -6.575000000    -4.090000000     4.855000000
H    -5.276000000    -4.136000000     4.080000000
O    -3.671000000     4.210000000     0.595000000
H    -4.511000000     3.751000000     0.565000000
H    -3.906000000     5.129000000     0.728000000
O     3.302000000     1.981000000    -3.609000000
H     3.246000000     2.799000000    -3.116000000
H     4.167000000     1.632000000    -3.395000000
O    -1.228000000    -5.499000000     2.258000000
H    -1.585000000    -6.322000000     1.924000000
H    -1.431000000    -4.857000000     1.578000000
O     5.330000000    -4.245000000    -0.059000000
H     4.589000000    -4.483000000    -0.615000000
H     4.957000000    -4.172000000     0.820000000
O     2.681000000    -2.459000000    -3.447000000
H     2.399000000    -1.545000000    -3.471000000
H     2.516000000    -2.784000000    -4.332000000
O     0.643000000     1.832000000    -6.052000000
H    -0.074000000     1.589000000    -6.638000000
H     1.037000000     2.602000000    -6.462000000
O     0.863000000     4.349000000    -4.779000000
H     0.627000000     4.427000000    -5.703000000
H     0.026000000     4.252000000    -4.326000000
O    -3.646000000     0.787000000     5.576000000
H    -3.430000000    -0.009000000     5.090000000
H    -3.316000000     1.499000000     5.028000000
O     5.317000000    -2.097000000    -2.615000000
H     4.361000000    -2.142000000    -2.636000000
H     5.534000000    -2.024000000    -1.686000000
O    -1.018000000    -7.775000000    -0.179000000
H    -1.590000000    -8.356000000     0.323000000
H    -0.140000000    -7.953000000     0.158000000
O    -1.694000000    -2.437000000     7.087000000
H    -1.542000000    -2.772000000     6.203000000
H    -2.372000000    -3.010000000     7.446000000
O     0.762000000     0.664000000     3.013000000
H     0.307000000     1.131000000     2.312000000
H     1.678000000     0.923000000     2.918000000
O     1.416000000     4.523000000     4.359000000
H     1.669000000     5.407000000     4.625000000
H     1.686000000     4.462000000     3.443000000
O     3.148000000    -4.562000000    -1.536000000
H     2.286000000    -4.765000000    -1.172000000
H     2.987000000    -3.839000000    -2.142000000
O    -0.623000000    -2.243000000    -3.578000000
H     0.085000000    -1.606000000    -3.681000000
H    -1.170000000    -1.882000000    -2.881000000
O    -5.579000000    -2.323000000     0.079000000
H    -4.979000000    -2.099000000     0.791000000
H    -5.356000000    -3.227000000    -0.146000000
O     6.691000000     1.641000000    -0.168000000
H     6.541000000     1.705000000    -1.112000000
H     6.032000000     2.217000000     0.219000000
O    -1.335000000    -4.108000000     4.809000000
H    -2.027000000    -4.752000000     4.960000000
H    -1.022000000    -4.296000000     3.924000000
O     1.338000000    -3.304000000     3.060000000
H     0.984000000    -2.761000000     3.764000000
H     0.834000000    -3.052000000     2.287000000
O    -2.380000000    -1.323000000     4.135000000
H    -2.459000000    -1.685000000     3.252000000
H    -1.500000000    -1.572000000     4.418000000
O    -5.755000000    -1.776000000     3.373000000
H    -5.008000000    -2.232000000     3.762000000
H    -5.433000000    -0.890000000     3.203000000
O    -3.588000000     2.277000000     3.247000000
H    -3.344000000     2.582000000     2.373000000
H    -4.521000000     2.477000000     3.319000000
O    -4.450000000    -2.199000000    -2.442000000
H    -3.881000000    -2.713000000    -1.869000000
H    -5.203000000    -1.976000000    -1.895000000
O     5.122000000     3.576000000     1.012000000
H     5.261000000     4.384000000     0.518000000
H     4.972000000     3.868000000     1.911000000
O     5.873000000     0.725000000    -3.233000000
H     6.777000000     0.864000000    -3.516000000
H     5.706000000    -0.201000000    -3.409000000
O    -2.764000000    -6.510000000    -1.957000000
H    -2.908000000    -7.042000000    -2.739000000
H    -2.074000000    -6.970000000    -1.479000000
O    -1.145000000     7.241000000     0.224000000
H    -0.314000000     7.274000000     0.697000000
H    -1.100000000     7.974000000    -0.390000000
O     0.972000000     6.379000000    -1.797000000
H     1.084000000     6.923000000    -1.017000000
H     0.233000000     5.809000000    -1.588000000
O     0.338000000    -1.314000000     4.817000000
H     0.602000000    -0.836000000     5.603000000
H     0.398000000    -0.670000000     4.112000000
O     2.019000000     7.259000000     0.770000000
H     2.843000000     6.862000000     0.487000000
H     2.135000000     7.410000000     1.708000000
O    -2.295000000     1.467000000    -2.945000000
H    -2.559000000     2.311000000    -2.578000000
H    -1.998000000     0.960000000    -2.190000000
O     1.151000000    -7.001000000     1.845000000
H     1.055000000    -6.415000000     1.095000000
H     1.875000000    -7.579000000     1.605000000
O    -4.759000000    -6.150000000     0.357000000
H    -5.691000000    -6.318000000     0.217000000
H    -4.344000000    -6.405000000    -0.467000000
O    -1.682000000     4.968000000    -1.192000000
H    -2.119000000     4.469000000    -0.502000000
H    -1.526000000     5.828000000    -0.803000000
O     3.522000000     4.517000000    -2.300000000
H     2.813000000     5.029000000    -2.687000000
H     3.785000000     5.016000000    -1.526000000
O    -2.847000000    -3.981000000    -1.534000000
H    -2.841000000    -4.915000000    -1.742000000
H    -2.492000000    -3.931000000    -0.647000000
