144
-2783.20198
O     4.556000000     1.581000000     2.097000000
H     4.037000000     2.164000000     2.651000000
H     4.001000000     0.810000000     1.975000000
O    -1.296000000     4.508000000    -3.289000000
H    -0.978000000     4.526000000    -2.387000000
H    -0.865000000     5.253000000    -3.709000000
O    -5.428000000    -1.420000000     5.434000000
H    -4.860000000    -0.746000000     5.807000000
H    -4.834000000    -2.138000000     5.211000000
O     3.239000000     0.071000000    -5.576000000
H     3.830000000     0.693000000    -5.151000000
H     2.854000000    -0.425000000    -4.854000000
O    -2.699000000    -3.801000000     4.781000000
H    -2.622000000    -4.698000000     4.456000000
H    -2.223000000    -3.273000000     4.141000000
O     2.048000000     4.162000000    -5.689000000
H     1.294000000     4.522000000    -6.155000000
H     1.731000000     4.012000000    -4.799000000
O    -2.178000000    -2.929000000    -3.324000000
H    -2.871000000    -2.343000000    -3.629000000
H    -2.641000000    -3.621000000    -2.852000000
O     1.558000000     4.333000000     1.538000000
H     1.715000000     5.247000000     1.777000000
H     2.218000000     3.841000000     2.025000000
O    -0.315000000     2.197000000    -8.444000000
H    -0.318000000     2.027000000    -7.502000000
H    -0.173000000     1.338000000    -8.842000000
O     5.098000000     2.748000000    -2.681000000
H     5.247000000     2.418000000    -1.794000000
H     4.393000000     3.388000000    -2.583000000
O    -4.748000000    -4.164000000     6.665000000
H    -4.931000000    -3.393000000     7.201000000
H    -4.159000000    -3.847000000     5.981000000
O    -2.957000000     3.223000000     1.893000000
H    -2.051000000     2.930000000     1.994000000
H    -3.466000000     2.614000000     2.428000000
O     2.864000000     4.385000000    -2.322000000
H     3.002000000     4.987000000    -1.591000000
H     2.017000000     4.641000000    -2.686000000
O     4.921000000    -2.848000000     0.045000000
H     4.090000000    -3.320000000    -0.010000000
H     5.136000000    -2.851000000     0.978000000
O     5.679000000    -1.524000000    -2.811000000
H     5.647000000    -1.818000000    -1.901000000
H     4.770000000    -1.314000000    -3.027000000
O    -4.495000000    -1.496000000    -3.853000000
H    -4.288000000    -0.808000000    -4.486000000
H    -4.982000000    -1.048000000    -3.162000000
O    -3.157000000     1.467000000    -3.390000000
H    -3.707000000     2.128000000    -3.812000000
H    -2.328000000     1.507000000    -3.865000000
O    -3.038000000     0.147000000     6.070000000
H    -3.139000000    -0.063000000     6.998000000
H    -2.198000000     0.601000000     6.017000000
O     0.996000000    -3.037000000    -1.955000000
H     0.157000000    -2.695000000    -1.645000000
H     1.393000000    -3.437000000    -1.181000000
O     0.561000000    -1.399000000     8.131000000
H     0.103000000    -2.099000000     7.665000000
H     0.327000000    -0.602000000     7.656000000
O     5.961000000     0.918000000    -0.516000000
H     6.736000000     0.400000000    -0.299000000
H     5.543000000     1.089000000     0.328000000
O    -0.611000000    -2.347000000     5.816000000
H    -1.275000000    -3.012000000     5.638000000
H    -0.328000000    -2.052000000     4.950000000
O     0.182000000     1.133000000     7.143000000
H    -0.258000000     1.256000000     6.302000000
H     0.032000000     1.953000000     7.614000000
O    -0.383000000     2.345000000     2.257000000
H    -0.308000000     1.820000000     1.460000000
H     0.133000000     3.131000000     2.076000000
O     3.045000000    -1.180000000    -2.979000000
H     2.547000000    -1.968000000    -2.762000000
H     2.845000000    -0.568000000    -2.271000000
O     4.919000000     2.292000000    -5.270000000
H     4.832000000     2.530000000    -4.346000000
H     5.690000000     2.774000000    -5.569000000
O     3.971000000    -0.894000000     5.104000000
H     3.469000000    -0.951000000     5.917000000
H     3.383000000    -0.454000000     4.489000000
O     3.865000000    -3.801000000     4.832000000
H     4.158000000    -2.892000000     4.759000000
H     3.143000000    -3.870000000     4.207000000
O    -1.395000000    -0.940000000    -5.249000000
H    -1.541000000    -1.592000000    -4.563000000
H    -1.550000000    -1.413000000    -6.066000000
O    -4.601000000    -1.064000000     1.156000000
H    -4.338000000    -0.517000000     1.896000000
H    -4.366000000    -0.551000000     0.383000000
O     2.243000000     0.002000000     3.407000000
H     1.770000000     0.819000000     3.569000000
H     1.583000000    -0.683000000     3.519000000
O    -3.357000000    -0.034000000     3.430000000
H    -2.816000000    -0.723000000     3.044000000
H    -3.278000000    -0.169000000     4.375000000
O    -4.023000000     4.136000000    -4.261000000
H    -4.487000000     4.939000000    -4.023000000
H    -3.098000000     4.349000000    -4.140000000
O     0.331000000     1.487000000    -5.901000000
H     1.202000000     1.660000000    -5.542000000
H     0.039000000     0.696000000    -5.448000000
O     0.718000000     7.552000000    -2.262000000
H     1.238000000     7.172000000    -1.554000000
H    -0.132000000     7.117000000    -2.194000000
O    -7.238000000    -1.473000000     1.248000000
H    -6.308000000    -1.275000000     1.137000000
H    -7.313000000    -1.776000000     2.153000000
O     2.065000000    -4.019000000     2.860000000
H     1.695000000    -3.230000000     3.257000000
H     1.305000000    -4.568000000     2.665000000
O     0.041000000     6.156000000    -4.771000000
H     0.593000000     6.880000000    -5.068000000
H    -0.790000000     6.285000000    -5.228000000
O    -0.173000000     4.785000000    -0.823000000
H     0.614000000     4.698000000    -0.285000000
H    -0.828000000     5.158000000    -0.233000000
O     3.846000000    -4.222000000    -2.105000000
H     4.655000000    -4.431000000    -1.638000000
H     3.148000000    -4.489000000    -1.506000000
O    -1.117000000     1.793000000     4.911000000
H    -1.875000000     2.353000000     5.078000000
H    -0.812000000     2.054000000     4.042000000
O    -4.473000000     0.727000000    -0.673000000
H    -4.532000000     1.574000000    -0.232000000
H    -4.016000000     0.916000000    -1.493000000
O     2.180000000    -4.223000000     0.111000000
H     1.993000000    -5.142000000    -0.081000000
H     2.234000000    -4.184000000     1.066000000
O    -3.678000000    -3.545000000     1.737000000
H    -2.979000000    -3.136000000     2.248000000
H    -4.250000000    -2.819000000     1.489000000
O    -6.297000000    -0.396000000    -2.369000000
H    -6.552000000     0.435000000    -2.770000000
H    -5.874000000    -0.146000000    -1.548000000
O    -2.465000000    -5.772000000     0.167000000
H    -2.847000000    -5.177000000     0.813000000
H    -2.759000000    -5.429000000    -0.677000000
O    -0.419000000    -5.681000000     2.103000000
H    -0.980000000    -5.661000000     1.328000000
H    -0.994000000    -5.976000000     2.808000000
O    -4.989000000     3.666000000    -0.095000000
H    -5.818000000     3.328000000     0.244000000
H    -4.448000000     3.799000000     0.683000000
