144
-2842.04017
O    -2.078000000    -2.012000000     1.420000000
H    -1.257000000    -1.568000000     1.633000000
H    -1.991000000    -2.879000000     1.815000000
O    -3.116000000     2.131000000    -6.742000000
H    -2.745000000     1.576000000    -6.056000000
H    -2.405000000     2.238000000    -7.374000000
O    -2.134000000     0.674000000    -4.767000000
H    -1.638000000    -0.024000000    -5.196000000
H    -2.592000000     0.237000000    -4.049000000
O    -1.106000000     2.830000000    -3.769000000
H    -0.513000000     3.101000000    -4.470000000
H    -1.466000000     1.996000000    -4.071000000
O    -1.407000000    -3.691000000    -2.706000000
H    -1.241000000    -3.162000000    -3.486000000
H    -0.555000000    -3.752000000    -2.273000000
O     2.190000000     3.489000000     0.829000000
H     1.532000000     4.176000000     0.733000000
H     3.000000000     3.958000000     1.029000000
O    -0.408000000     5.868000000     1.114000000
H    -0.060000000     5.577000000     0.271000000
H    -1.353000000     5.730000000     1.043000000
O     0.781000000    -0.093000000    -5.251000000
H     0.750000000     0.640000000    -4.637000000
H     1.646000000    -0.030000000    -5.656000000
O    -3.117000000     6.076000000     1.754000000
H    -3.223000000     7.010000000     1.572000000
H    -3.182000000     6.009000000     2.707000000
O    -3.430000000    -2.802000000    -1.016000000
H    -2.718000000    -3.111000000    -1.577000000
H    -2.988000000    -2.389000000    -0.274000000
O    -4.061000000    -1.949000000    -5.827000000
H    -4.102000000    -2.824000000    -5.440000000
H    -3.147000000    -1.684000000    -5.723000000
O     4.329000000     0.124000000    -2.490000000
H     4.449000000    -0.409000000    -1.703000000
H     3.608000000     0.715000000    -2.272000000
O    -1.243000000    -4.305000000     2.696000000
H    -1.061000000    -4.611000000     1.808000000
H    -0.442000000    -4.498000000     3.184000000
O     2.951000000     0.491000000     4.523000000
H     3.324000000    -0.296000000     4.920000000
H     3.110000000     1.182000000     5.166000000
O     3.161000000    -2.034000000    -4.046000000
H     3.113000000    -2.796000000    -3.469000000
H     3.625000000    -1.373000000    -3.531000000
O    -4.417000000    -0.716000000     1.495000000
H    -3.496000000    -0.959000000     1.411000000
H    -4.670000000    -0.426000000     0.618000000
O     2.752000000     2.593000000     6.203000000
H     1.805000000     2.490000000     6.117000000
H     2.926000000     2.447000000     7.133000000
O     1.109000000    -4.992000000     3.762000000
H     1.751000000    -4.672000000     3.128000000
H     1.583000000    -5.015000000     4.593000000
O    -5.240000000     0.662000000    -1.705000000
H    -5.243000000     1.438000000    -2.265000000
H    -6.116000000     0.640000000    -1.320000000
O     3.337000000    -7.333000000     2.696000000
H     3.247000000    -6.387000000     2.579000000
H     3.723000000    -7.640000000     1.875000000
O     0.032000000     2.672000000     5.776000000
H    -0.346000000     3.026000000     4.971000000
H    -0.427000000     3.132000000     6.479000000
O     1.771000000    -8.165000000    -0.954000000
H     1.732000000    -8.289000000    -1.902000000
H     0.892000000    -7.874000000    -0.713000000
O    -3.593000000    -0.839000000    -2.929000000
H    -4.128000000    -0.266000000    -2.379000000
H    -3.553000000    -1.664000000    -2.446000000
O     0.280000000     0.003000000     4.804000000
H     0.277000000     0.862000000     5.227000000
H     1.175000000    -0.100000000     4.479000000
O    -3.589000000     4.903000000     4.289000000
H    -3.204000000     5.003000000     5.160000000
H    -4.448000000     4.513000000     4.450000000
O     4.291000000     0.924000000     2.153000000
H     3.969000000     1.715000000     1.721000000
H     3.722000000     0.818000000     2.915000000
O     4.512000000    -1.773000000    -0.062000000
H     4.683000000    -1.222000000     0.702000000
H     3.628000000    -2.111000000     0.080000000
O    -2.579000000     6.417000000    -3.351000000
H    -1.673000000     6.403000000    -3.657000000
H    -2.709000000     5.558000000    -2.948000000
O     0.820000000     4.793000000    -1.516000000
H     0.619000000     4.110000000    -2.156000000
H     1.477000000     5.340000000    -1.947000000
O    -6.656000000     2.161000000     1.369000000
H    -6.381000000     1.923000000     2.255000000
H    -5.858000000     2.479000000     0.948000000
O     1.979000000     1.901000000    -1.774000000
H     1.981000000     2.456000000    -0.994000000
H     1.323000000     1.228000000    -1.588000000
O     2.102000000     5.762000000     3.397000000
H     2.738000000     5.530000000     4.074000000
H     1.669000000     4.935000000     3.181000000
O    -3.218000000     3.958000000    -2.219000000
H    -2.426000000     3.536000000    -2.550000000
H    -3.922000000     3.613000000    -2.768000000
O     3.027000000     2.223000000    -4.378000000
H     3.658000000     2.927000000    -4.227000000
H     2.544000000     2.154000000    -3.554000000
O     3.207000000    -4.853000000     1.768000000
H     2.737000000    -4.319000000     1.127000000
H     3.970000000    -5.181000000     1.293000000
O     2.675000000    -4.442000000    -2.808000000
H     2.355000000    -5.293000000    -3.106000000
H     1.980000000    -4.109000000    -2.241000000
O    -2.701000000     0.909000000     4.629000000
H    -1.866000000     0.983000000     4.167000000
H    -2.779000000    -0.022000000     4.837000000
O     0.906000000     8.181000000     1.556000000
H     1.709000000     7.718000000     1.795000000
H     0.341000000     7.503000000     1.184000000
O     4.980000000    -3.365000000     3.142000000
H     4.202000000    -3.723000000     2.713000000
H     5.638000000    -4.055000000     3.060000000
O     5.019000000    -4.373000000    -1.463000000
H     4.216000000    -4.552000000    -1.953000000
H     4.809000000    -3.603000000    -0.934000000
O    -5.230000000     1.244000000     3.416000000
H    -4.625000000     1.197000000     4.156000000
H    -4.972000000     0.516000000     2.850000000
O     4.356000000    -1.768000000     5.292000000
H     4.668000000    -2.473000000     4.724000000
H     4.986000000    -1.059000000     5.162000000
O    -2.321000000    -6.438000000    -2.789000000
H    -3.016000000    -6.252000000    -2.158000000
H    -1.794000000    -5.640000000    -2.808000000
O    -0.795000000    -2.125000000    -5.063000000
H    -0.128000000    -1.441000000    -5.119000000
H    -0.469000000    -2.824000000    -5.630000000
O    -2.417000000    -1.675000000     5.004000000
H    -1.489000000    -1.477000000     5.135000000
H    -2.421000000    -2.401000000     4.380000000
O    -0.990000000     4.559000000     3.590000000
H    -0.477000000     5.132000000     3.020000000
H    -1.899000000     4.804000000     3.421000000
O    -4.266000000     3.409000000     0.597000000
H    -3.715000000     3.301000000    -0.178000000
H    -4.104000000     4.309000000     0.882000000
O    -0.854000000    -5.087000000     0.166000000
H    -0.866000000    -6.044000000     0.158000000
H    -0.057000000    -4.854000000    -0.310000000
