144
-2815.24297
O     5.243000000     1.471000000     1.052000000
H     5.157000000     2.059000000     1.803000000
H     5.506000000     0.633000000     1.433000000
O    -0.906000000     4.216000000    -2.376000000
H    -0.704000000     3.324000000    -2.659000000
H    -0.211000000     4.434000000    -1.756000000
O     2.504000000    -0.630000000    -5.502000000
H     2.907000000     0.202000000    -5.255000000
H     2.154000000    -0.980000000    -4.683000000
O    -3.141000000    -3.708000000     4.144000000
H    -2.365000000    -3.842000000     4.688000000
H    -2.863000000    -3.076000000     3.481000000
O     2.531000000     3.945000000    -4.101000000
H     1.616000000     4.051000000    -4.361000000
H     2.641000000     4.542000000    -3.361000000
O    -1.861000000    -2.575000000    -1.176000000
H    -2.637000000    -3.071000000    -0.918000000
H    -1.767000000    -1.907000000    -0.497000000
O     2.141000000     4.259000000     1.910000000
H     2.180000000     5.083000000     2.396000000
H     2.856000000     3.735000000     2.270000000
O    -6.579000000    -4.582000000     0.698000000
H    -7.485000000    -4.297000000     0.822000000
H    -6.054000000    -3.810000000     0.909000000
O    -1.502000000     1.824000000    -6.598000000
H    -1.301000000     1.115000000    -7.208000000
H    -2.020000000     2.443000000    -7.112000000
O     6.635000000     3.422000000    -2.990000000
H     5.923000000     2.793000000    -3.111000000
H     6.244000000     4.132000000    -2.483000000
O    -5.125000000    -2.748000000     5.935000000
H    -4.757000000    -3.119000000     6.737000000
H    -4.702000000    -3.237000000     5.229000000
O    -2.522000000     2.951000000     3.135000000
H    -2.939000000     2.123000000     2.896000000
H    -2.573000000     2.979000000     4.090000000
O     2.233000000     5.965000000    -2.262000000
H     3.027000000     6.303000000    -1.847000000
H     1.758000000     5.533000000    -1.552000000
O    -0.860000000    -4.634000000     5.511000000
H    -0.979000000    -5.580000000     5.591000000
H     0.007000000    -4.535000000     5.118000000
O     5.705000000    -1.220000000    -0.345000000
H     5.089000000    -1.835000000     0.054000000
H     6.467000000    -1.235000000     0.234000000
O     4.844000000    -2.058000000    -3.240000000
H     5.003000000    -2.290000000    -2.326000000
H     3.956000000    -1.700000000    -3.245000000
O     0.214000000     3.838000000    -5.597000000
H    -0.311000000     3.109000000    -5.926000000
H     0.786000000     4.070000000    -6.328000000
O    -2.495000000     1.963000000    -3.851000000
H    -2.373000000     2.511000000    -4.627000000
H    -1.977000000     1.178000000    -4.029000000
O    -3.361000000    -0.505000000     5.710000000
H    -4.254000000    -0.828000000     5.833000000
H    -2.812000000    -1.137000000     6.174000000
O    -6.174000000     1.215000000     4.379000000
H    -6.912000000     0.909000000     3.852000000
H    -5.417000000     1.135000000     3.800000000
O     0.465000000    -3.682000000    -2.059000000
H     0.050000000    -3.205000000    -1.341000000
H     0.316000000    -4.605000000    -1.853000000
O     5.090000000     0.841000000    -2.046000000
H     5.544000000     0.007000000    -1.923000000
H     5.195000000     1.296000000    -1.210000000
O    -0.955000000    -1.969000000     6.703000000
H    -0.283000000    -1.294000000     6.605000000
H    -0.755000000    -2.607000000     6.017000000
O     0.771000000     1.792000000     2.781000000
H    -0.105000000     2.165000000     2.676000000
H     1.048000000     1.576000000     1.891000000
O     2.238000000    -1.432000000    -2.741000000
H     2.301000000    -2.171000000    -2.136000000
H     1.357000000    -1.085000000    -2.605000000
O     3.888000000     1.418000000    -4.273000000
H     4.286000000     1.112000000    -3.458000000
H     3.383000000     2.190000000    -4.018000000
O     4.209000000    -0.201000000     4.867000000
H     3.908000000    -0.846000000     5.507000000
H     3.440000000    -0.027000000     4.323000000
O     2.780000000    -4.460000000     4.366000000
H     2.493000000    -4.576000000     3.460000000
H     2.436000000    -3.603000000     4.618000000
O    -6.290000000     0.585000000    -0.756000000
H    -5.770000000     0.169000000    -0.068000000
H    -5.811000000     1.386000000    -0.967000000
O     1.083000000    -2.430000000     4.442000000
H     1.203000000    -1.484000000     4.534000000
H     0.465000000    -2.523000000     3.717000000
O    -3.925000000     0.057000000     3.150000000
H    -3.448000000    -0.544000000     2.578000000
H    -3.637000000    -0.173000000     4.033000000
O    -2.642000000     4.795000000    -4.580000000
H    -2.656000000     5.752000000    -4.593000000
H    -1.983000000     4.575000000    -3.922000000
O    -1.064000000    -0.348000000    -4.073000000
H    -0.737000000    -0.918000000    -3.378000000
H    -1.115000000    -0.914000000    -4.843000000
O    -7.364000000    -1.360000000     2.437000000
H    -6.467000000    -1.473000000     2.122000000
H    -7.586000000    -2.201000000     2.836000000
O     1.358000000    -4.279000000     1.898000000
H     0.743000000    -3.630000000     2.240000000
H     0.812000000    -5.032000000     1.674000000
O    -4.765000000    -2.731000000    -1.980000000
H    -5.011000000    -3.591000000    -2.319000000
H    -5.374000000    -2.124000000    -2.401000000
O     0.037000000    -6.391000000    -1.199000000
H    -0.154000000    -6.253000000    -0.272000000
H    -0.477000000    -7.162000000    -1.438000000
O     0.622000000     5.363000000    -0.272000000
H     1.115000000     4.963000000     0.444000000
H     0.243000000     6.154000000     0.110000000
O     4.447000000     1.452000000    -6.926000000
H     4.787000000     0.559000000    -6.980000000
H     4.167000000     1.548000000    -6.016000000
O     4.337000000    -4.451000000    -0.811000000
H     3.813000000    -5.184000000    -0.486000000
H     4.606000000    -3.980000000    -0.023000000
O     1.262000000     0.037000000     4.696000000
H     1.055000000     0.463000000     5.528000000
H     0.932000000     0.640000000     4.030000000
O    -4.767000000     2.867000000    -2.110000000
H    -4.281000000     3.095000000    -1.317000000
H    -4.096000000     2.799000000    -2.790000000
O     4.050000000    -2.532000000     1.264000000
H     4.213000000    -2.817000000     2.163000000
H     3.235000000    -2.969000000     1.018000000
O    -4.954000000    -2.215000000     0.770000000
H    -4.028000000    -2.190000000     1.008000000
H    -4.955000000    -2.416000000    -0.166000000
O    -4.188000000    -6.261000000     4.872000000
H    -3.888000000    -5.382000000     4.641000000
H    -4.852000000    -6.469000000     4.215000000
O    -2.810000000    -4.481000000     0.969000000
H    -3.743000000    -4.679000000     0.893000000
H    -2.743000000    -3.945000000     1.759000000
O    -0.294000000    -6.161000000     1.656000000
H    -1.219000000    -5.938000000     1.760000000
H    -0.223000000    -7.054000000     1.995000000
O    -3.515000000     3.533000000     0.305000000
H    -3.998000000     4.311000000     0.583000000
H    -2.770000000     3.488000000     0.904000000
