144
-2789.14759
O     6.322000000    -1.434000000     2.829000000
H     6.883000000    -2.105000000     2.442000000
H     6.922000000    -0.726000000     3.064000000
O     2.057000000    -2.435000000    -3.651000000
H     1.887000000    -2.780000000    -4.527000000
H     1.190000000    -2.348000000    -3.255000000
O    -3.598000000    -1.274000000     3.301000000
H    -3.465000000    -0.334000000     3.175000000
H    -2.761000000    -1.669000000     3.059000000
O    -0.637000000     0.499000000     4.925000000
H     0.186000000     0.988000000     4.914000000
H    -0.484000000    -0.241000000     4.338000000
O    -1.284000000    -4.376000000     7.617000000
H    -0.473000000    -4.241000000     7.126000000
H    -1.812000000    -3.602000000     7.423000000
O     0.572000000     3.513000000    -4.686000000
H     0.946000000     3.029000000    -3.951000000
H    -0.172000000     2.981000000    -4.970000000
O    -4.428000000     3.940000000    -3.593000000
H    -4.312000000     4.658000000    -2.970000000
H    -5.005000000     4.299000000    -4.267000000
O     1.175000000     6.298000000    -4.786000000
H     1.700000000     6.189000000    -5.579000000
H     0.793000000     5.435000000    -4.631000000
O     6.198000000    -2.028000000    -0.777000000
H     6.222000000    -1.082000000    -0.921000000
H     6.209000000    -2.405000000    -1.656000000
O    -6.162000000    -1.270000000     2.539000000
H    -5.279000000    -1.376000000     2.893000000
H    -6.033000000    -1.185000000     1.595000000
O    -4.414000000    -2.050000000     5.640000000
H    -3.725000000    -2.071000000     6.303000000
H    -4.076000000    -1.466000000     4.961000000
O    -0.506000000     5.546000000    -1.014000000
H    -0.777000000     4.671000000    -0.734000000
H     0.056000000     5.860000000    -0.306000000
O     5.060000000     3.353000000    -0.234000000
H     5.242000000     3.986000000    -0.928000000
H     4.613000000     3.862000000     0.443000000
O     1.440000000     2.153000000     4.848000000
H     1.576000000     2.515000000     5.724000000
H     1.747000000     1.248000000     4.913000000
O    -1.817000000     1.764000000    -4.952000000
H    -1.422000000     1.061000000    -4.437000000
H    -2.744000000     1.745000000    -4.713000000
O     6.029000000     0.782000000    -0.617000000
H     5.788000000     0.757000000    -1.544000000
H     5.510000000     1.501000000    -0.255000000
O    -4.684000000    -5.987000000     1.705000000
H    -4.283000000    -6.158000000     2.557000000
H    -5.590000000    -6.278000000     1.804000000
O     0.807000000     2.671000000     2.252000000
H     1.284000000     2.085000000     1.664000000
H     0.943000000     2.299000000     3.123000000
O     2.466000000    -1.333000000     7.319000000
H     2.919000000    -1.903000000     7.940000000
H     3.157000000    -1.019000000     6.735000000
O    -2.149000000    -4.299000000    -1.962000000
H    -2.531000000    -4.395000000    -1.089000000
H    -1.236000000    -4.566000000    -1.854000000
O    -1.434000000    -2.911000000     5.036000000
H    -2.274000000    -2.694000000     4.630000000
H    -0.779000000    -2.606000000     4.408000000
O    -3.131000000     5.463000000     0.524000000
H    -2.514000000     4.741000000     0.647000000
H    -2.882000000     6.106000000     1.188000000
O    -0.194000000     7.685000000    -2.919000000
H     0.316000000     7.261000000    -3.609000000
H     0.029000000     7.199000000    -2.125000000
O    -2.592000000     2.211000000     3.996000000
H    -1.775000000     1.886000000     4.375000000
H    -2.419000000     3.134000000     3.809000000
O     1.562000000    -6.471000000     4.103000000
H     0.821000000    -6.481000000     4.709000000
H     1.300000000    -5.861000000     3.414000000
O     4.248000000    -2.727000000     4.788000000
H     4.337000000    -2.099000000     5.505000000
H     4.838000000    -2.400000000     4.109000000
O     0.272000000    -5.155000000    -1.073000000
H     0.512000000    -5.969000000    -1.514000000
H     1.040000000    -4.592000000    -1.175000000
O     1.361000000    -3.884000000     6.282000000
H     1.687000000    -3.998000000     5.389000000
H     1.501000000    -2.956000000     6.471000000
O     2.043000000    -0.481000000     4.500000000
H     1.623000000    -1.059000000     3.863000000
H     2.981000000    -0.635000000     4.381000000
O    -3.638000000     1.488000000     1.553000000
H    -4.504000000     1.862000000     1.389000000
H    -3.431000000     1.748000000     2.451000000
O     5.397000000     0.129000000    -3.254000000
H     5.304000000     0.502000000    -4.131000000
H     5.243000000    -0.808000000    -3.375000000
O    -2.618000000    -1.289000000    -3.762000000
H    -3.177000000    -2.036000000    -3.976000000
H    -3.223000000    -0.551000000    -3.687000000
O    -5.772000000    -0.161000000    -0.571000000
H    -5.333000000     0.626000000    -0.249000000
H    -6.683000000     0.106000000    -0.694000000
O    -4.249000000     1.332000000    -3.123000000
H    -4.500000000     1.246000000    -2.203000000
H    -4.268000000     2.274000000    -3.290000000
O    -5.391000000    -2.988000000    -0.739000000
H    -5.155000000    -2.061000000    -0.784000000
H    -4.605000000    -3.419000000    -0.402000000
O     0.839000000     0.624000000    -6.008000000
H     0.872000000     0.972000000    -6.899000000
H     0.220000000    -0.104000000    -6.058000000
O     2.996000000    -3.291000000     2.488000000
H     3.426000000    -3.539000000     3.306000000
H     2.105000000    -3.057000000     2.748000000
O    -0.461000000    -2.102000000    -2.527000000
H    -0.499000000    -2.170000000    -1.573000000
H    -1.271000000    -1.652000000    -2.768000000
O    -1.140000000    -5.802000000     4.800000000
H    -1.290000000    -4.857000000     4.807000000
H    -2.005000000    -6.184000000     4.946000000
O     3.390000000     1.761000000    -5.138000000
H     2.807000000     1.153000000    -4.685000000
H     2.903000000     2.022000000    -5.920000000
O    -1.279000000     3.547000000     0.829000000
H    -1.694000000     2.696000000     0.694000000
H    -0.563000000     3.370000000     1.440000000
O    -0.853000000    -1.558000000    -5.908000000
H    -0.136000000    -2.187000000    -5.825000000
H    -1.306000000    -1.599000000    -5.066000000
O     0.200000000    -5.150000000     2.073000000
H     0.005000000    -5.013000000     1.146000000
H    -0.499000000    -4.687000000     2.536000000
O     4.813000000    -4.132000000     0.651000000
H     5.291000000    -3.318000000     0.488000000
H     4.089000000    -3.875000000     1.222000000
O     3.484000000    -0.890000000    -7.245000000
H     2.957000000    -0.593000000    -7.987000000
H     3.095000000    -0.454000000    -6.486000000
O     0.116000000    -0.259000000     7.594000000
H     0.850000000    -0.825000000     7.356000000
H    -0.136000000     0.164000000     6.774000000
O    -3.088000000    -3.641000000     0.732000000
H    -2.536000000    -3.086000000     1.283000000
H    -3.695000000    -4.057000000     1.344000000
O     2.950000000    -6.067000000     0.794000000
H     3.718000000    -5.508000000     0.674000000
H     2.372000000    -5.559000000     1.363000000
