144
-2808.16621
O     0.053000000     5.670000000     1.778000000
H     0.973000000     5.886000000     1.628000000
H    -0.333000000     5.643000000     0.902000000
O    -2.880000000     3.282000000    -4.677000000
H    -1.992000000     3.116000000    -4.994000000
H    -3.094000000     2.511000000    -4.152000000
O    -2.062000000     7.037000000    -0.471000000
H    -1.277000000     6.824000000    -0.976000000
H    -2.733000000     6.444000000    -0.808000000
O    -4.844000000    -0.438000000    -1.644000000
H    -5.786000000    -0.592000000    -1.569000000
H    -4.462000000    -0.930000000    -0.916000000
O    -1.106000000    -9.097000000    -1.642000000
H    -1.810000000    -9.073000000    -0.993000000
H    -0.539000000    -8.362000000    -1.407000000
O     0.953000000    -6.526000000     5.187000000
H     1.767000000    -6.137000000     4.867000000
H     0.304000000    -6.309000000     4.517000000
O    -3.650000000     3.183000000     3.382000000
H    -3.485000000     4.012000000     2.934000000
H    -3.625000000     2.526000000     2.686000000
O     3.782000000     1.883000000    -1.173000000
H     3.380000000     1.167000000    -1.664000000
H     3.346000000     2.671000000    -1.498000000
O     2.282000000    -8.028000000     2.782000000
H     2.154000000    -7.148000000     2.429000000
H     1.663000000    -8.087000000     3.509000000
O    -3.335000000     0.743000000    -3.677000000
H    -3.814000000     0.125000000    -4.231000000
H    -3.709000000     0.622000000    -2.805000000
O     4.362000000    -0.002000000     3.061000000
H     4.172000000     0.377000000     3.919000000
H     4.744000000     0.718000000     2.560000000
O    -3.170000000     0.900000000     1.558000000
H    -3.804000000     0.207000000     1.370000000
H    -2.344000000     0.571000000     1.206000000
O    -0.459000000    -1.870000000     3.542000000
H     0.205000000    -1.200000000     3.706000000
H    -0.609000000    -1.832000000     2.597000000
O    -3.538000000     4.738000000    -2.071000000
H    -3.926000000     3.925000000    -1.745000000
H    -3.847000000     4.804000000    -2.975000000
O    -1.974000000    -6.176000000    -4.760000000
H    -1.050000000    -6.250000000    -4.517000000
H    -2.262000000    -7.080000000    -4.884000000
O     0.653000000    -3.411000000    -4.747000000
H    -0.073000000    -3.360000000    -4.125000000
H     1.389000000    -3.002000000    -4.291000000
O     1.126000000    -5.986000000    -1.159000000
H     0.796000000    -5.097000000    -1.027000000
H     1.010000000    -6.413000000    -0.311000000
O     4.222000000    -5.468000000     0.815000000
H     3.655000000    -4.974000000     0.223000000
H     4.040000000    -6.385000000     0.610000000
O     2.827000000    -1.317000000     6.677000000
H     2.392000000    -1.512000000     5.847000000
H     3.063000000    -2.175000000     7.031000000
O    -0.421000000    -5.119000000     3.283000000
H    -1.348000000    -4.933000000     3.434000000
H    -0.172000000    -4.531000000     2.570000000
O     0.743000000    -6.041000000    -4.052000000
H     0.890000000    -5.179000000    -4.442000000
H     1.054000000    -5.953000000    -3.151000000
O     0.340000000    -7.006000000     1.196000000
H    -0.306000000    -6.398000000     1.556000000
H     0.111000000    -7.853000000     1.579000000
O     2.446000000    -2.699000000     3.448000000
H     2.012000000    -2.840000000     2.607000000
H     2.950000000    -1.894000000     3.326000000
O     0.836000000     0.719000000     4.120000000
H     0.443000000     1.428000000     3.610000000
H     0.759000000     1.007000000     5.029000000
O    -2.842000000     5.674000000     1.914000000
H    -1.895000000     5.532000000     1.908000000
H    -3.003000000     6.247000000     1.165000000
O    -0.771000000     6.030000000    -3.976000000
H    -0.552000000     6.167000000    -4.897000000
H    -1.592000000     5.538000000    -3.995000000
O     3.325000000    -4.993000000     4.279000000
H     3.034000000    -4.164000000     3.899000000
H     3.749000000    -5.453000000     3.554000000
O     4.456000000     2.155000000     1.375000000
H     4.091000000     2.175000000     0.490000000
H     4.673000000     3.068000000     1.565000000
O    -4.760000000     2.316000000    -0.905000000
H    -3.987000000     1.807000000    -0.663000000
H    -5.419000000     1.659000000    -1.128000000
O     2.189000000     0.057000000    -2.527000000
H     1.918000000     0.530000000    -3.314000000
H     1.408000000    -0.428000000    -2.259000000
O     6.667000000     0.717000000     0.076000000
H     5.901000000     1.230000000     0.334000000
H     7.168000000     0.611000000     0.885000000
O     2.473000000     6.644000000     0.799000000
H     2.320000000     6.942000000    -0.097000000
H     3.051000000     7.307000000     1.176000000
O     2.776000000    -2.355000000    -3.407000000
H     2.742000000    -1.408000000    -3.274000000
H     3.346000000    -2.470000000    -4.168000000
O     5.789000000    -2.492000000     3.144000000
H     5.471000000    -1.601000000     2.997000000
H     6.088000000    -2.492000000     4.054000000
O     4.307000000    -1.500000000    -0.056000000
H     4.317000000    -0.735000000     0.518000000
H     3.485000000    -1.945000000     0.152000000
O     0.230000000    -3.207000000     5.771000000
H     0.288000000    -4.075000000     5.373000000
H    -0.042000000    -2.632000000     5.055000000
O     2.162000000     3.934000000    -2.631000000
H     1.694000000     4.534000000    -2.050000000
H     1.861000000     4.169000000    -3.509000000
O     3.346000000    -4.029000000    -1.322000000
H     2.526000000    -4.510000000    -1.206000000
H     3.139000000    -3.358000000    -1.973000000
O    -3.604000000    -1.740000000     0.717000000
H    -3.879000000    -2.595000000     0.386000000
H    -3.572000000    -1.849000000     1.667000000
O    -3.262000000    -2.118000000     3.440000000
H    -3.777000000    -1.584000000     4.045000000
H    -2.380000000    -2.117000000     3.811000000
O     0.298000000     6.098000000    -1.462000000
H    -0.066000000     5.934000000    -2.332000000
H     0.711000000     6.958000000    -1.534000000
O    -4.541000000    -4.403000000     0.546000000
H    -5.320000000    -3.882000000     0.740000000
H    -4.408000000    -4.936000000     1.330000000
O     0.062000000     5.182000000     4.720000000
H     0.001000000     5.221000000     3.765000000
H     0.100000000     6.099000000     4.994000000
O    -2.494000000    -5.698000000    -0.626000000
H    -3.173000000    -5.034000000    -0.506000000
H    -1.674000000    -5.203000000    -0.631000000
O    -4.418000000    -6.192000000    -2.575000000
H    -3.559000000    -6.078000000    -2.167000000
H    -4.327000000    -6.983000000    -3.106000000
O    -2.984000000    -3.195000000    -5.559000000
H    -3.310000000    -2.385000000    -5.168000000
H    -2.395000000    -3.559000000    -4.898000000
O    -1.572000000    -3.831000000    -3.291000000
H    -1.889000000    -4.710000000    -3.499000000
H    -1.210000000    -3.909000000    -2.408000000
O    -2.726000000    -8.287000000     0.463000000
H    -2.857000000    -8.123000000     1.396000000
H    -2.828000000    -7.428000000     0.052000000
