144
-2805.76844
O     1.388000000     6.541000000    -1.433000000
H     1.396000000     5.808000000    -2.048000000
H     1.530000000     7.314000000    -1.979000000
O     0.785000000    -3.160000000    -5.184000000
H     0.758000000    -2.218000000    -5.351000000
H     1.559000000    -3.465000000    -5.658000000
O    -3.402000000     4.221000000    -3.251000000
H    -2.578000000     3.755000000    -3.397000000
H    -3.449000000     4.854000000    -3.968000000
O    -2.307000000     6.682000000    -1.207000000
H    -1.901000000     6.540000000    -0.351000000
H    -3.177000000     6.290000000    -1.127000000
O    -0.275000000     1.543000000     5.864000000
H    -0.945000000     1.342000000     5.211000000
H    -0.493000000     2.424000000     6.168000000
O    -3.645000000     0.869000000    -1.174000000
H    -4.247000000     0.724000000    -0.445000000
H    -2.880000000     1.283000000    -0.775000000
O    -2.555000000     4.252000000     2.952000000
H    -1.602000000     4.348000000     2.959000000
H    -2.728000000     3.633000000     2.243000000
O     3.816000000     2.006000000     0.018000000
H     3.397000000     1.233000000    -0.360000000
H     4.404000000     2.320000000    -0.669000000
O     1.768000000     2.406000000    -6.960000000
H     1.139000000     2.035000000    -6.341000000
H     1.547000000     3.336000000    -6.997000000
O     2.866000000    -7.674000000     2.435000000
H     3.298000000    -7.326000000     1.654000000
H     2.033000000    -7.206000000     2.477000000
O    -5.717000000     2.362000000    -3.168000000
H    -5.243000000     3.103000000    -2.791000000
H    -6.017000000     1.859000000    -2.411000000
O     4.385000000     1.250000000     2.749000000
H     3.803000000     1.706000000     3.357000000
H     3.961000000     1.344000000     1.896000000
O    -2.689000000     1.557000000     1.327000000
H    -2.888000000     0.640000000     1.517000000
H    -1.733000000     1.597000000     1.314000000
O    -0.221000000    -1.353000000     4.987000000
H     0.250000000    -1.623000000     5.775000000
H     0.195000000    -1.845000000     4.279000000
O    -4.723000000     5.332000000    -1.102000000
H    -4.754000000     4.532000000    -0.578000000
H    -4.275000000     5.074000000    -1.908000000
O     2.614000000     2.116000000     4.741000000
H     2.547000000     1.476000000     5.449000000
H     1.725000000     2.460000000     4.645000000
O    -0.486000000    -5.335000000    -4.074000000
H    -0.156000000    -6.144000000    -4.465000000
H    -0.276000000    -4.656000000    -4.715000000
O     1.199000000    -5.693000000    -0.645000000
H     0.700000000    -5.004000000    -0.206000000
H     2.017000000    -5.748000000    -0.151000000
O     0.681000000    -5.809000000     2.893000000
H     0.637000000    -5.071000000     2.285000000
H    -0.233000000    -6.005000000     3.098000000
O     2.123000000    -4.664000000    -3.070000000
H     1.406000000    -4.349000000    -3.620000000
H     1.691000000    -5.149000000    -2.367000000
O     3.403000000    -3.090000000     3.507000000
H     2.560000000    -2.864000000     3.114000000
H     3.255000000    -3.941000000     3.920000000
O     3.597000000    -2.046000000     5.980000000
H     3.696000000    -2.197000000     5.040000000
H     3.685000000    -2.915000000     6.372000000
O     2.648000000     4.654000000     1.394000000
H     2.953000000     5.537000000     1.187000000
H     3.217000000     4.078000000     0.883000000
O    -4.573000000     3.428000000     0.645000000
H    -5.499000000     3.247000000     0.486000000
H    -4.226000000     2.610000000     1.003000000
O     2.805000000    -0.626000000    -1.045000000
H     2.616000000    -0.490000000    -1.973000000
H     1.965000000    -0.484000000    -0.606000000
O     2.267000000     0.300000000     6.825000000
H     1.317000000     0.409000000     6.772000000
H     2.436000000    -0.539000000     6.396000000
O    -3.644000000    -1.812000000    -1.712000000
H    -3.565000000    -0.946000000    -1.310000000
H    -2.773000000    -2.198000000    -1.623000000
O     5.514000000    -1.439000000     3.480000000
H     5.005000000    -0.690000000     3.170000000
H     4.892000000    -2.167000000     3.484000000
O     5.410000000    -0.860000000    -0.201000000
H     4.483000000    -0.814000000    -0.437000000
H     5.665000000    -1.760000000    -0.403000000
O     2.027000000     0.257000000    -3.613000000
H     1.174000000     0.474000000    -3.989000000
H     2.529000000    -0.096000000    -4.347000000
O     3.847000000    -6.403000000     0.185000000
H     4.201000000    -5.522000000     0.063000000
H     3.815000000    -6.772000000    -0.698000000
O    -0.010000000     0.783000000    -5.231000000
H    -0.829000000     1.111000000    -4.861000000
H    -0.284000000     0.179000000    -5.922000000
O     4.722000000    -4.144000000    -1.087000000
H     5.585000000    -3.966000000    -1.461000000
H     4.119000000    -4.069000000    -1.827000000
O    -5.563000000    -2.152000000    -3.520000000
H    -5.582000000    -1.399000000    -4.110000000
H    -4.741000000    -2.058000000    -3.038000000
O     4.391000000     1.762000000    -2.977000000
H     5.030000000     1.700000000    -3.686000000
H     3.655000000     1.225000000    -3.271000000
O    -3.101000000    -1.087000000     2.002000000
H    -2.825000000    -1.895000000     2.436000000
H    -4.053000000    -1.077000000     2.099000000
O    -2.328000000     0.348000000     4.568000000
H    -3.162000000     0.185000000     4.128000000
H    -1.827000000    -0.457000000     4.438000000
O     5.050000000    -5.275000000     2.920000000
H     4.274000000    -5.835000000     2.955000000
H     4.782000000    -4.531000000     2.380000000
O     1.431000000     4.891000000    -3.977000000
H     0.664000000     4.799000000    -4.542000000
H     2.149000000     4.510000000    -4.483000000
O    -2.421000000    -3.499000000     3.335000000
H    -1.484000000    -3.339000000     3.446000000
H    -2.536000000    -4.419000000     3.574000000
O    -0.166000000     5.498000000     0.602000000
H     0.518000000     4.961000000     1.002000000
H     0.255000000     5.891000000    -0.163000000
O    -1.836000000    -5.330000000     0.323000000
H    -1.142000000    -4.807000000     0.725000000
H    -2.047000000    -4.867000000    -0.487000000
O    -2.438000000     1.255000000    -4.020000000
H    -3.152000000     1.092000000    -4.636000000
H    -2.842000000     1.167000000    -3.157000000
O     0.427000000     4.467000000     4.209000000
H     0.720000000     4.259000000     5.097000000
H     1.078000000     5.088000000     3.882000000
O    -1.872000000    -3.996000000    -2.110000000
H    -1.189000000    -4.579000000    -2.441000000
H    -2.407000000    -3.795000000    -2.877000000
O     2.472000000    -5.294000000     4.768000000
H     2.250000000    -5.692000000     5.610000000
H     1.792000000    -5.606000000     4.170000000
O    -2.009000000    -8.070000000     0.535000000
H    -2.035000000    -8.248000000     1.475000000
H    -1.834000000    -7.131000000     0.475000000
O     0.630000000    -8.322000000    -0.436000000
H    -0.291000000    -8.389000000    -0.187000000
H     0.788000000    -7.382000000    -0.520000000
