144
-2847.32024
O     3.881000000    -2.388000000     4.098000000
H     4.651000000    -1.888000000     3.828000000
H     3.279000000    -2.319000000     3.357000000
O    -0.184000000    -6.136000000    -4.006000000
H    -0.489000000    -6.293000000    -3.112000000
H    -0.901000000    -5.657000000    -4.423000000
O     0.450000000    -5.552000000    -0.327000000
H     0.323000000    -4.849000000     0.310000000
H     1.390000000    -5.549000000    -0.503000000
O     5.482000000    -4.179000000     5.402000000
H     5.936000000    -3.339000000     5.337000000
H     4.615000000    -4.012000000     5.035000000
O     0.792000000     6.313000000    -1.213000000
H     0.118000000     6.957000000    -0.993000000
H     1.441000000     6.397000000    -0.514000000
O     2.215000000    -4.607000000    -3.453000000
H     1.412000000    -5.061000000    -3.711000000
H     1.964000000    -3.684000000    -3.407000000
O    -3.177000000    -0.586000000     4.622000000
H    -3.613000000    -1.404000000     4.861000000
H    -3.137000000    -0.606000000     3.666000000
O    -0.761000000     1.776000000     4.552000000
H    -0.994000000     1.395000000     3.706000000
H    -1.067000000     2.682000000     4.499000000
O     1.718000000     0.702000000     4.695000000
H     1.023000000     1.352000000     4.793000000
H     1.256000000    -0.121000000     4.538000000
O    -1.564000000     2.544000000    -5.590000000
H    -0.636000000     2.353000000    -5.458000000
H    -1.578000000     3.179000000    -6.306000000
O     2.017000000     5.250000000     2.777000000
H     2.100000000     5.598000000     3.665000000
H     2.249000000     4.325000000     2.860000000
O     3.986000000    -7.430000000     3.129000000
H     3.611000000    -6.550000000     3.086000000
H     3.680000000    -7.860000000     2.331000000
O    -2.799000000    -3.235000000     1.164000000
H    -1.906000000    -3.119000000     1.487000000
H    -2.898000000    -4.183000000     1.070000000
O     2.903000000    -3.095000000    -0.685000000
H     2.577000000    -2.486000000    -0.022000000
H     2.861000000    -2.601000000    -1.504000000
O    -4.248000000     4.129000000    -1.030000000
H    -3.833000000     4.533000000    -1.792000000
H    -4.773000000     3.416000000    -1.393000000
O     2.372000000    -4.812000000     5.649000000
H     2.475000000    -4.966000000     4.710000000
H     2.951000000    -5.452000000     6.061000000
O     2.078000000     4.877000000    -4.938000000
H     1.195000000     5.215000000    -4.791000000
H     1.966000000     4.192000000    -5.597000000
O     6.005000000    -1.473000000     2.450000000
H     6.556000000    -0.704000000     2.602000000
H     5.877000000    -1.492000000     1.502000000
O    -0.540000000    -3.992000000     4.267000000
H    -0.079000000    -3.700000000     5.053000000
H     0.077000000    -3.831000000     3.553000000
O    -2.788000000    -4.821000000     5.569000000
H    -3.107000000    -5.408000000     4.883000000
H    -1.866000000    -4.680000000     5.354000000
O     1.169000000    -1.943000000     5.063000000
H     1.899000000    -2.290000000     5.576000000
H     1.419000000    -2.104000000     4.153000000
O    -1.110000000     4.792000000     4.179000000
H    -0.525000000     5.433000000     4.583000000
H    -1.258000000     5.127000000     3.295000000
O    -6.468000000     2.342000000    -1.192000000
H    -6.742000000     2.111000000    -0.304000000
H    -6.935000000     3.156000000    -1.382000000
O     1.338000000    -2.192000000    -4.238000000
H     0.396000000    -2.300000000    -4.108000000
H     1.479000000    -2.405000000    -5.161000000
O     2.909000000     2.791000000     2.841000000
H     2.736000000     2.060000000     3.434000000
H     3.560000000     2.451000000     2.227000000
O    -3.823000000    -0.614000000     1.882000000
H    -4.749000000    -0.507000000     1.663000000
H    -3.581000000    -1.456000000     1.496000000
O     2.607000000    -0.499000000    -1.562000000
H     2.834000000    -0.013000000    -2.355000000
H     1.693000000    -0.269000000    -1.394000000
O    -2.446000000     0.279000000    -4.052000000
H    -2.822000000     0.750000000    -3.308000000
H    -2.102000000     0.968000000    -4.621000000
O    -4.475000000     3.645000000     1.752000000
H    -4.381000000     3.704000000     0.802000000
H    -3.763000000     3.069000000     2.029000000
O    -2.725000000    -5.945000000     1.455000000
H    -2.770000000    -6.261000000     2.358000000
H    -2.408000000    -6.696000000     0.954000000
O     5.155000000     3.092000000    -1.280000000
H     4.272000000     3.166000000    -1.643000000
H     5.529000000     2.326000000    -1.716000000
O     5.090000000     1.937000000     1.062000000
H     5.115000000     1.049000000     0.706000000
H     5.267000000     2.501000000     0.309000000
O    -3.006000000     3.749000000    -3.472000000
H    -2.922000000     2.842000000    -3.179000000
H    -2.996000000     3.693000000    -4.428000000
O     3.945000000    -0.222000000     6.194000000
H     3.174000000     0.004000000     5.675000000
H     4.053000000    -1.164000000     6.066000000
O     3.499000000    -0.047000000    -4.262000000
H     3.581000000     0.217000000    -5.178000000
H     2.937000000    -0.821000000    -4.285000000
O    -1.182000000    -0.856000000     6.333000000
H    -1.809000000    -0.709000000     5.625000000
H    -0.520000000    -1.433000000     5.951000000
O     5.046000000    -0.643000000    -0.130000000
H     4.148000000    -0.849000000    -0.391000000
H     5.386000000    -0.106000000    -0.846000000
O    -1.761000000    -2.560000000    -3.854000000
H    -2.050000000    -2.980000000    -3.045000000
H    -2.184000000    -1.701000000    -3.842000000
O    -2.521000000     1.804000000     2.111000000
H    -2.112000000     1.796000000     1.246000000
H    -3.042000000     1.001000000     2.137000000
O    -0.535000000     5.287000000    -3.612000000
H    -1.414000000     4.908000000    -3.643000000
H    -0.276000000     5.216000000    -2.693000000
O    -2.151000000    -6.493000000    -1.883000000
H    -1.883000000    -6.143000000    -1.034000000
H    -2.457000000    -7.380000000    -1.691000000
O     2.828000000     6.651000000     0.431000000
H     3.671000000     7.090000000     0.314000000
H     2.896000000     6.227000000     1.286000000
O     3.291000000    -5.585000000    -0.457000000
H     3.178000000    -4.635000000    -0.488000000
H     4.223000000    -5.721000000    -0.625000000
O    -3.707000000    -1.823000000    -1.437000000
H    -4.510000000    -2.248000000    -1.737000000
H    -3.616000000    -2.097000000    -0.525000000
O     3.288000000     4.505000000    -2.554000000
H     2.774000000     4.647000000    -3.349000000
H     2.733000000     4.835000000    -1.848000000
O    -4.005000000     1.086000000    -1.747000000
H    -4.866000000     1.308000000    -1.392000000
H    -3.855000000     0.184000000    -1.464000000
O    -0.797000000    -7.857000000     0.511000000
H    -0.291000000    -7.048000000     0.435000000
H    -0.543000000    -8.372000000    -0.254000000
O     2.954000000    -4.971000000     2.809000000
H     3.592000000    -4.298000000     2.573000000
H     2.153000000    -4.714000000     2.351000000
