144
-2807.18164
O     2.275000000    -4.441000000     0.458000000
H     1.518000000    -4.533000000     1.036000000
H     1.913000000    -4.087000000    -0.355000000
O     1.130000000    -3.736000000    -1.793000000
H     1.564000000    -4.176000000    -2.525000000
H     0.203000000    -3.948000000    -1.903000000
O    -0.345000000    -6.131000000     1.439000000
H    -0.214000000    -5.211000000     1.666000000
H    -0.291000000    -6.594000000     2.276000000
O    -4.028000000     3.827000000    -0.079000000
H    -4.177000000     4.663000000     0.363000000
H    -3.231000000     3.482000000     0.324000000
O     3.172000000    -0.299000000    -2.726000000
H     2.258000000    -0.032000000    -2.815000000
H     3.371000000    -0.751000000    -3.546000000
O     2.504000000     0.199000000     5.707000000
H     2.648000000     0.163000000     4.761000000
H     2.000000000    -0.590000000     5.903000000
O     0.223000000     5.872000000     1.414000000
H     0.234000000     5.517000000     0.525000000
H    -0.704000000     6.020000000     1.601000000
O     3.583000000     1.476000000    -6.126000000
H     3.518000000     0.573000000    -5.817000000
H     2.785000000     1.612000000    -6.638000000
O     1.458000000     3.303000000     2.559000000
H     1.007000000     3.846000000     3.206000000
H     0.830000000     2.611000000     2.348000000
O     2.619000000     0.150000000     3.073000000
H     2.289000000    -0.742000000     3.186000000
H     1.846000000     0.663000000     2.835000000
O    -1.858000000     1.145000000    -3.794000000
H    -2.372000000     1.813000000    -3.340000000
H    -2.010000000     1.315000000    -4.723000000
O     3.166000000     4.801000000     0.841000000
H     2.817000000     4.994000000    -0.029000000
H     2.389000000     4.677000000     1.388000000
O    -4.005000000    -5.567000000     3.261000000
H    -3.159000000    -5.187000000     3.495000000
H    -3.798000000    -6.221000000     2.594000000
O    -3.466000000    -7.651000000     1.362000000
H    -3.131000000    -6.972000000     0.777000000
H    -4.344000000    -7.841000000     1.031000000
O    -5.745000000    -4.717000000    -0.472000000
H    -5.266000000    -4.145000000    -1.071000000
H    -6.418000000    -4.154000000    -0.090000000
O     4.570000000    -1.459000000     1.367000000
H     4.011000000    -1.825000000     2.053000000
H     4.804000000    -0.588000000     1.687000000
O    -5.268000000     1.262000000    -1.020000000
H    -5.470000000     0.815000000    -0.197000000
H    -5.315000000     2.193000000    -0.804000000
O    -1.175000000    -6.803000000    -0.893000000
H    -1.329000000    -5.949000000    -1.298000000
H    -0.591000000    -6.618000000    -0.157000000
O     2.218000000     4.624000000    -5.454000000
H     1.525000000     4.371000000    -4.844000000
H     3.024000000     4.558000000    -4.942000000
O     3.965000000     2.145000000     1.988000000
H     3.390000000     2.911000000     2.011000000
H     3.378000000     1.401000000     2.123000000
O    -1.716000000    -4.492000000     3.985000000
H    -1.874000000    -3.940000000     4.751000000
H    -1.347000000    -3.897000000     3.333000000
O     0.162000000     4.485000000    -3.529000000
H    -0.625000000     4.716000000    -4.024000000
H    -0.140000000     3.842000000    -2.887000000
O    -1.447000000    -0.600000000     4.308000000
H    -1.958000000    -1.398000000     4.440000000
H    -1.482000000    -0.151000000     5.152000000
O    -0.682000000    -6.614000000     5.511000000
H    -0.847000000    -5.792000000     5.050000000
H    -1.181000000    -7.268000000     5.020000000
O     6.080000000     0.315000000     2.628000000
H     5.503000000     1.005000000     2.301000000
H     6.848000000     0.781000000     2.959000000
O     5.186000000    -5.010000000     0.103000000
H     4.956000000    -5.407000000    -0.737000000
H     4.400000000    -4.531000000     0.364000000
O     4.858000000    -3.374000000    -3.516000000
H     3.973000000    -3.612000000    -3.793000000
H     4.747000000    -3.033000000    -2.628000000
O     3.788000000     7.445000000     1.341000000
H     3.177000000     7.672000000     2.042000000
H     3.664000000     6.505000000     1.210000000
O    -3.858000000    -2.020000000     2.866000000
H    -4.577000000    -2.649000000     2.807000000
H    -3.254000000    -2.279000000     2.170000000
O    -6.112000000    -3.588000000     2.607000000
H    -5.414000000    -4.241000000     2.568000000
H    -6.767000000    -3.973000000     3.190000000
O     5.883000000     2.802000000    -3.474000000
H     6.580000000     2.592000000    -4.096000000
H     5.798000000     2.016000000    -2.935000000
O     4.679000000     5.177000000    -4.036000000
H     5.187000000     5.401000000    -4.815000000
H     5.069000000     4.361000000    -3.722000000
O    -2.484000000    -1.919000000    -3.432000000
H    -2.097000000    -2.293000000    -4.223000000
H    -2.439000000    -0.972000000    -3.568000000
O    -3.817000000     0.843000000     3.002000000
H    -3.297000000     0.049000000     3.123000000
H    -4.572000000     0.559000000     2.487000000
O    -4.088000000    -5.357000000    -2.848000000
H    -4.251000000    -5.631000000    -1.946000000
H    -3.179000000    -5.057000000    -2.847000000
O     7.251000000     0.194000000    -1.156000000
H     6.424000000     0.587000000    -0.878000000
H     7.165000000    -0.732000000    -0.929000000
O    -2.687000000     3.261000000     2.405000000
H    -2.945000000     2.375000000     2.658000000
H    -1.884000000     3.427000000     2.898000000
O    -2.141000000     3.704000000    -2.355000000
H    -2.871000000     3.791000000    -1.742000000
H    -2.310000000     4.366000000    -3.025000000
O     1.761000000    -2.335000000     3.307000000
H     1.461000000    -2.669000000     4.152000000
H     1.094000000    -2.625000000     2.684000000
O     4.654000000     1.354000000    -0.903000000
H     4.126000000     1.507000000    -0.120000000
H     4.105000000     0.798000000    -1.457000000
O     0.520000000    -0.351000000    -3.320000000
H    -0.001000000     0.448000000    -3.391000000
H     0.331000000    -0.684000000    -2.443000000
O    -0.441000000     1.349000000     2.527000000
H    -0.349000000     0.744000000     1.791000000
H    -0.715000000     0.795000000     3.258000000
O     2.307000000     5.356000000    -1.603000000
H     1.669000000     4.839000000    -2.095000000
H     2.420000000     6.152000000    -2.122000000
O    -5.542000000    -0.279000000     1.160000000
H    -5.124000000    -1.109000000     0.932000000
H    -6.399000000    -0.530000000     1.505000000
O    -1.733000000    -4.064000000    -1.488000000
H    -1.943000000    -3.307000000    -2.034000000
H    -1.820000000    -3.744000000    -0.590000000
O     5.491000000     5.147000000    -0.602000000
H     4.932000000     4.477000000    -0.994000000
H     4.916000000     5.616000000     0.003000000
O     4.259000000    -2.211000000    -1.167000000
H     4.267000000    -1.952000000    -0.246000000
H     3.696000000    -1.564000000    -1.593000000
O    -6.079000000    -1.093000000    -2.390000000
H    -5.384000000    -0.435000000    -2.366000000
H    -6.830000000    -0.664000000    -1.981000000
