144
-2793.08295
O     2.262000000    -4.766000000     0.122000000
H     1.647000000    -4.250000000     0.644000000
H     1.873000000    -4.791000000    -0.752000000
O     0.945000000    -5.249000000    -2.187000000
H     1.775000000    -5.295000000    -2.661000000
H     0.425000000    -4.611000000    -2.677000000
O    -2.529000000    -4.972000000     3.408000000
H    -2.447000000    -4.246000000     2.790000000
H    -1.711000000    -5.461000000     3.312000000
O     4.448000000    -6.126000000     2.686000000
H     4.195000000    -5.274000000     2.329000000
H     3.653000000    -6.655000000     2.629000000
O     5.774000000     5.359000000     0.263000000
H     5.365000000     4.493000000     0.239000000
H     6.404000000     5.346000000    -0.457000000
O    -3.120000000     2.694000000    -2.561000000
H    -3.017000000     3.607000000    -2.294000000
H    -3.472000000     2.256000000    -1.786000000
O     1.139000000     3.307000000    -4.550000000
H     0.412000000     2.695000000    -4.664000000
H     0.947000000     4.023000000    -5.155000000
O    -1.135000000     7.165000000    -0.393000000
H    -0.498000000     7.487000000    -1.031000000
H    -1.571000000     7.953000000    -0.071000000
O     6.321000000     1.163000000    -0.004000000
H     6.461000000     1.166000000    -0.951000000
H     5.512000000     1.658000000     0.120000000
O    -2.550000000    -3.861000000     6.477000000
H    -3.232000000    -4.510000000     6.305000000
H    -2.417000000    -3.423000000     5.636000000
O     1.169000000     3.973000000     3.669000000
H     0.936000000     3.044000000     3.681000000
H     0.656000000     4.339000000     2.949000000
O     2.919000000     0.120000000     2.814000000
H     3.007000000    -0.831000000     2.760000000
H     2.366000000     0.353000000     2.069000000
O     2.520000000     5.363000000     0.347000000
H     1.671000000     5.664000000     0.671000000
H     2.464000000     5.467000000    -0.603000000
O    -0.323000000     4.394000000     1.519000000
H    -0.885000000     5.107000000     1.215000000
H    -0.516000000     3.667000000     0.927000000
O    -5.199000000    -5.338000000     2.808000000
H    -4.312000000    -5.580000000     3.077000000
H    -5.683000000    -6.164000000     2.811000000
O    -6.117000000    -3.764000000     0.946000000
H    -5.635000000    -3.013000000     1.292000000
H    -6.024000000    -4.439000000     1.619000000
O     4.605000000    -3.507000000     1.848000000
H     3.759000000    -3.125000000     2.085000000
H     5.124000000    -2.765000000     1.538000000
O    -4.884000000    -1.486000000    -1.551000000
H    -4.332000000    -1.983000000    -2.155000000
H    -5.148000000    -2.124000000    -0.888000000
O     2.603000000     4.735000000    -2.433000000
H     2.112000000     4.247000000    -3.094000000
H     3.322000000     4.152000000    -2.189000000
O    -4.095000000     3.028000000    -5.106000000
H    -3.651000000     2.858000000    -4.275000000
H    -3.696000000     3.837000000    -5.429000000
O     0.107000000    -5.914000000     2.856000000
H     0.526000000    -5.566000000     3.643000000
H     0.005000000    -5.155000000     2.283000000
O    -2.866000000     5.458000000    -1.832000000
H    -2.261000000     5.904000000    -1.239000000
H    -3.137000000     6.136000000    -2.452000000
O    -0.812000000     6.533000000    -4.104000000
H    -0.191000000     6.473000000    -3.378000000
H    -0.438000000     5.976000000    -4.786000000
O    -1.433000000     0.440000000     5.138000000
H    -1.600000000    -0.418000000     4.749000000
H    -0.920000000     0.252000000     5.923000000
O     0.871000000    -4.277000000     5.206000000
H     0.512000000    -3.959000000     6.034000000
H     1.271000000    -5.119000000     5.425000000
O     5.436000000    -1.102000000     3.934000000
H     5.199000000    -0.948000000     3.019000000
H     6.335000000    -0.782000000     4.006000000
O     2.222000000    -7.621000000     3.172000000
H     1.431000000    -7.524000000     2.641000000
H     1.945000000    -7.391000000     4.059000000
O    -5.375000000     5.660000000    -0.569000000
H    -5.320000000     5.815000000     0.374000000
H    -4.474000000     5.477000000    -0.835000000
O    -1.641000000    -2.262000000     4.580000000
H    -1.538000000    -2.539000000     3.669000000
H    -0.959000000    -2.738000000     5.053000000
O    -6.238000000    -3.105000000     4.255000000
H    -6.902000000    -2.739000000     3.671000000
H    -5.526000000    -3.370000000     3.672000000
O     4.613000000     2.706000000    -2.360000000
H     5.503000000     2.487000000    -2.636000000
H     4.050000000     2.166000000    -2.914000000
O    -3.036000000    -3.700000000    -2.861000000
H    -3.074000000    -4.487000000    -3.405000000
H    -2.148000000    -3.365000000    -2.987000000
O    -4.940000000     0.950000000     2.178000000
H    -4.263000000     1.318000000     2.746000000
H    -5.580000000     0.572000000     2.781000000
O    -4.745000000     1.450000000    -0.643000000
H    -4.783000000     1.254000000     0.293000000
H    -4.980000000     0.626000000    -1.070000000
O    -0.946000000     1.539000000    -4.604000000
H    -0.870000000     0.764000000    -5.161000000
H    -1.169000000     1.192000000    -3.740000000
O     2.318000000    -2.684000000     2.906000000
H     2.226000000    -2.868000000     3.841000000
H     1.540000000    -3.074000000     2.508000000
O     6.362000000    -1.788000000    -1.789000000
H     5.715000000    -1.851000000    -2.491000000
H     7.201000000    -1.701000000    -2.242000000
O     2.852000000     1.129000000    -3.512000000
H     2.730000000     0.393000000    -4.111000000
H     2.075000000     1.674000000    -3.640000000
O     1.128000000    -2.541000000    -3.034000000
H     0.356000000    -2.020000000    -3.257000000
H     1.869000000    -1.968000000    -3.230000000
O    -0.548000000     1.985000000     3.171000000
H    -1.174000000     1.639000000     2.535000000
H    -0.715000000     1.482000000     3.969000000
O     1.100000000     6.873000000    -2.266000000
H     1.661000000     6.098000000    -2.293000000
H     1.651000000     7.553000000    -1.878000000
O    -3.535000000     2.006000000     4.052000000
H    -2.959000000     1.557000000     4.672000000
H    -3.373000000     2.937000000     4.206000000
O     6.037000000    -1.285000000     0.852000000
H     5.961000000    -1.635000000    -0.035000000
H     6.244000000    -0.359000000     0.727000000
O    -3.052000000    -5.139000000     0.362000000
H    -3.994000000    -4.992000000     0.451000000
H    -2.653000000    -4.321000000     0.657000000
O     4.157000000     2.991000000     0.479000000
H     3.940000000     2.839000000    -0.441000000
H     3.578000000     3.704000000     0.748000000
O     4.569000000    -5.915000000    -0.109000000
H     5.135000000    -5.462000000     0.516000000
H     3.684000000    -5.635000000     0.124000000
O    -4.334000000    -2.012000000     2.234000000
H    -3.439000000    -2.213000000     1.960000000
H    -4.265000000    -1.165000000     2.675000000
O     0.929000000    -7.570000000     0.342000000
H     1.614000000    -7.410000000    -0.307000000
H     0.778000000    -6.717000000     0.747000000
