144
-2794.07447
O     5.126000000    -2.526000000    -0.655000000
H     5.088000000    -2.441000000     0.297000000
H     4.301000000    -2.950000000    -0.892000000
O     1.921000000     3.638000000     3.106000000
H     2.112000000     3.053000000     2.373000000
H     1.429000000     3.095000000     3.723000000
O     0.640000000    -3.722000000    -3.724000000
H     0.133000000    -4.507000000    -3.515000000
H     1.380000000    -3.746000000    -3.116000000
O     0.900000000    -5.016000000     0.211000000
H    -0.040000000    -4.839000000     0.205000000
H     1.071000000    -5.377000000     1.081000000
O     5.471000000     1.719000000    -3.294000000
H     5.268000000     2.341000000    -2.595000000
H     4.816000000     1.028000000    -3.197000000
O     0.511000000     4.203000000    -3.329000000
H     1.412000000     4.216000000    -3.651000000
H     0.151000000     3.380000000    -3.661000000
O    -3.036000000     2.500000000    -2.749000000
H    -3.004000000     3.003000000    -3.563000000
H    -3.489000000     1.691000000    -2.987000000
O    -3.196000000     3.156000000     1.593000000
H    -3.830000000     2.463000000     1.405000000
H    -2.614000000     2.775000000     2.250000000
O     5.129000000     4.300000000     4.914000000
H     4.867000000     3.453000000     4.553000000
H     4.495000000     4.920000000     4.554000000
O    -5.821000000     1.800000000     1.737000000
H    -5.936000000     2.646000000     2.170000000
H    -6.689000000     1.588000000     1.392000000
O     5.764000000     3.468000000    -0.023000000
H     4.876000000     3.176000000     0.184000000
H     5.648000000     4.107000000    -0.726000000
O    -6.480000000    -1.259000000    -2.585000000
H    -6.754000000    -0.378000000    -2.840000000
H    -6.652000000    -1.300000000    -1.644000000
O     2.911000000     4.941000000     0.387000000
H     2.014000000     5.273000000     0.427000000
H     2.827000000     4.004000000     0.567000000
O    -4.853000000    -4.375000000    -0.375000000
H    -3.942000000    -4.101000000    -0.268000000
H    -5.217000000    -4.346000000     0.510000000
O     0.621000000    -2.809000000     5.460000000
H     1.106000000    -3.595000000     5.207000000
H     0.440000000    -2.363000000     4.633000000
O     4.321000000    -2.138000000     2.080000000
H     4.002000000    -1.293000000     1.762000000
H     4.969000000    -1.913000000     2.748000000
O    -2.506000000    -4.162000000    -4.351000000
H    -2.996000000    -4.724000000    -3.751000000
H    -3.055000000    -3.384000000    -4.453000000
O    -3.071000000    -2.921000000     1.788000000
H    -3.210000000    -1.991000000     1.970000000
H    -3.204000000    -3.353000000     2.632000000
O     2.765000000     5.826000000     4.089000000
H     2.349000000     5.116000000     3.600000000
H     2.518000000     6.620000000     3.617000000
O    -0.832000000    -6.049000000    -2.548000000
H    -1.271000000    -5.199000000    -2.517000000
H    -0.794000000    -6.332000000    -1.634000000
O     3.424000000     2.790000000    -1.639000000
H     2.879000000     2.148000000    -2.095000000
H     3.286000000     2.602000000    -0.710000000
O    -5.001000000    -5.657000000    -2.897000000
H    -5.371000000    -6.539000000    -2.916000000
H    -5.277000000    -5.298000000    -2.054000000
O    -2.269000000     4.448000000    -0.890000000
H    -2.516000000     3.810000000    -1.560000000
H    -2.767000000     4.187000000    -0.115000000
O     8.452000000     1.622000000     3.240000000
H     9.249000000     1.551000000     2.714000000
H     7.744000000     1.407000000     2.633000000
O    -5.024000000     2.167000000    -5.806000000
H    -5.850000000     2.147000000    -6.290000000
H    -5.114000000     1.477000000    -5.149000000
O     0.012000000    -0.813000000     3.700000000
H     0.192000000    -0.014000000     4.197000000
H     0.113000000    -0.554000000     2.785000000
O    -0.118000000     1.861000000    -4.655000000
H    -0.381000000     1.804000000    -5.573000000
H    -0.477000000     1.069000000    -4.254000000
O     3.898000000    -4.589000000     2.758000000
H     4.057000000    -3.653000000     2.632000000
H     3.639000000    -4.906000000     1.893000000
O    -3.317000000    -1.612000000    -5.421000000
H    -4.200000000    -1.742000000    -5.768000000
H    -2.745000000    -1.700000000    -6.184000000
O     5.959000000    -1.804000000    -3.113000000
H     6.756000000    -1.348000000    -2.843000000
H     5.662000000    -2.254000000    -2.322000000
O    -2.036000000     2.021000000     3.751000000
H    -1.671000000     2.747000000     4.256000000
H    -2.655000000     1.601000000     4.347000000
O     7.688000000    -2.401000000    -0.229000000
H     6.772000000    -2.303000000    -0.488000000
H     7.888000000    -1.597000000     0.251000000
O    -4.323000000     0.233000000    -3.746000000
H    -3.918000000    -0.240000000    -4.474000000
H    -4.713000000    -0.451000000    -3.203000000
O     2.313000000     0.880000000    -3.043000000
H     1.477000000     0.554000000    -2.711000000
H     2.697000000     0.133000000    -3.502000000
O     4.153000000     1.845000000     3.919000000
H     4.375000000     1.011000000     4.332000000
H     3.841000000     1.605000000     3.046000000
O     6.447000000    -1.241000000     3.455000000
H     7.232000000    -1.423000000     3.972000000
H     6.728000000    -0.587000000     2.815000000
O     2.737000000    -4.089000000    -1.807000000
H     2.178000000    -4.624000000    -1.243000000
H     3.443000000    -4.679000000    -2.073000000
O    -4.418000000    -0.540000000     2.438000000
H    -4.693000000     0.010000000     1.704000000
H    -4.013000000     0.069000000     3.055000000
O    -0.430000000    -0.659000000    -3.851000000
H    -1.340000000    -0.911000000    -4.010000000
H     0.039000000    -1.490000000    -3.778000000
O    -6.815000000    -1.531000000     3.531000000
H    -5.943000000    -1.234000000     3.270000000
H    -6.760000000    -2.486000000     3.507000000
O    -6.722000000    -1.752000000     0.525000000
H    -6.364000000    -2.521000000     0.082000000
H    -6.493000000    -1.877000000     1.446000000
O    -1.922000000    -4.601000000    -0.070000000
H    -2.280000000    -3.920000000     0.500000000
H    -2.362000000    -5.403000000     0.209000000
O     5.229000000     6.490000000     1.046000000
H     5.951000000     6.173000000     1.588000000
H     4.692000000     5.714000000     0.884000000
O     0.187000000     5.567000000    -0.932000000
H     0.554000000     5.113000000    -1.691000000
H    -0.694000000     5.206000000    -0.840000000
O     3.038000000     5.540000000    -2.223000000
H     2.985000000     4.587000000    -2.295000000
H     2.905000000     5.718000000    -1.292000000
O    -0.373000000     5.323000000     2.311000000
H     0.279000000     4.815000000     2.794000000
H    -0.674000000     4.732000000     1.621000000
O     4.987000000    -0.364000000     5.942000000
H     5.832000000     0.065000000     5.810000000
H     5.037000000    -1.159000000     5.411000000
O     6.395000000     0.935000000     1.498000000
H     5.476000000     0.669000000     1.516000000
H     6.406000000     1.723000000     0.955000000
