144
-2801.89802
O     1.651000000    -6.055000000    -0.907000000
H     1.109000000    -5.267000000    -0.954000000
H     2.550000000    -5.729000000    -0.948000000
O    -3.356000000    -3.437000000     0.262000000
H    -3.974000000    -3.174000000    -0.419000000
H    -2.509000000    -3.472000000    -0.183000000
O     1.715000000     0.928000000     3.623000000
H     2.392000000     0.633000000     3.015000000
H     2.154000000     1.575000000     4.175000000
O    -3.328000000     3.165000000     4.791000000
H    -3.097000000     4.059000000     4.539000000
H    -2.500000000     2.774000000     5.071000000
O     7.022000000    -2.119000000    -1.400000000
H     6.085000000    -2.280000000    -1.505000000
H     7.076000000    -1.227000000    -1.057000000
O     0.451000000    -7.774000000     1.158000000
H     0.895000000    -7.730000000     2.005000000
H     1.008000000    -7.265000000     0.569000000
O    -4.873000000    -0.932000000     0.708000000
H    -4.426000000    -1.089000000     1.539000000
H    -4.234000000    -0.452000000     0.180000000
O    -0.982000000    -2.323000000    -3.777000000
H    -1.257000000    -3.028000000    -3.190000000
H    -0.035000000    -2.435000000    -3.858000000
O    -1.347000000    -6.124000000    -0.063000000
H    -0.699000000    -6.648000000     0.408000000
H    -0.908000000    -5.289000000    -0.224000000
O    -4.865000000     4.966000000    -3.180000000
H    -4.879000000     4.198000000    -3.751000000
H    -4.426000000     4.665000000    -2.384000000
O    -3.082000000    -2.074000000     2.641000000
H    -3.367000000    -2.487000000     1.826000000
H    -2.406000000    -2.660000000     2.982000000
O     0.990000000     7.541000000    -1.032000000
H     0.578000000     6.912000000    -1.625000000
H     1.289000000     7.012000000    -0.293000000
O     3.744000000     3.093000000    -3.267000000
H     2.856000000     3.397000000    -3.453000000
H     3.955000000     2.508000000    -3.995000000
O     2.043000000    -8.176000000    -2.514000000
H     1.761000000    -7.262000000    -2.481000000
H     2.970000000    -8.133000000    -2.747000000
O    -1.608000000     5.077000000    -2.629000000
H    -1.601000000     6.031000000    -2.552000000
H    -1.640000000     4.913000000    -3.571000000
O     4.479000000    -1.879000000    -3.923000000
H     4.559000000    -0.937000000    -4.073000000
H     4.820000000    -2.279000000    -4.723000000
O     1.684000000    -5.606000000    -4.565000000
H     1.674000000    -5.010000000    -3.817000000
H     0.817000000    -5.512000000    -4.958000000
O    -0.357000000    -5.042000000     2.453000000
H    -1.197000000    -5.485000000     2.327000000
H    -0.226000000    -4.543000000     1.646000000
O    -0.643000000     3.008000000     4.082000000
H    -0.256000000     3.792000000     3.692000000
H    -0.098000000     2.288000000     3.764000000
O     0.286000000     3.239000000    -3.101000000
H    -0.032000000     3.929000000    -2.518000000
H     0.597000000     3.706000000    -3.876000000
O    -4.000000000    -5.976000000     0.981000000
H    -3.249000000    -6.193000000     0.428000000
H    -3.938000000    -5.029000000     1.106000000
O    -3.432000000     6.711000000     1.554000000
H    -3.394000000     6.128000000     0.796000000
H    -4.264000000     7.175000000     1.459000000
O    -1.990000000    -4.844000000    -2.609000000
H    -1.723000000    -5.455000000    -3.296000000
H    -1.956000000    -5.361000000    -1.804000000
O    -1.841000000     6.336000000     4.037000000
H    -2.397000000     6.267000000     3.261000000
H    -1.040000000     5.869000000     3.801000000
O     2.552000000    -5.148000000     3.772000000
H     1.909000000    -4.898000000     3.108000000
H     2.539000000    -6.105000000     3.769000000
O     5.497000000     0.645000000    -0.381000000
H     5.036000000    -0.193000000    -0.417000000
H     6.234000000     0.488000000     0.209000000
O     1.053000000     5.416000000     3.309000000
H     1.206000000     5.782000000     2.437000000
H     1.890000000     5.518000000     3.762000000
O     2.437000000     5.683000000     0.520000000
H     3.017000000     5.102000000     0.028000000
H     3.029000000     6.277000000     0.982000000
O     4.478000000    -1.866000000     2.689000000
H     4.006000000    -1.224000000     2.159000000
H     4.180000000    -2.714000000     2.360000000
O    -0.564000000    -0.700000000     4.262000000
H    -1.180000000    -0.567000000     3.542000000
H     0.171000000    -0.122000000     4.058000000
O     4.725000000    -6.168000000    -0.668000000
H     4.600000000    -6.604000000    -1.511000000
H     5.108000000    -6.840000000    -0.104000000
O     3.380000000     1.408000000    -5.562000000
H     3.258000000     1.354000000    -6.510000000
H     2.496000000     1.347000000    -5.202000000
O    -5.426000000    -3.238000000     3.544000000
H    -5.540000000    -3.284000000     4.494000000
H    -4.487000000    -3.098000000     3.422000000
O    -2.984000000    -0.306000000    -1.132000000
H    -3.462000000    -0.944000000    -1.661000000
H    -2.083000000    -0.630000000    -1.122000000
O    -3.220000000     4.911000000    -0.499000000
H    -2.774000000     4.960000000    -1.344000000
H    -3.314000000     3.974000000    -0.330000000
O    -1.826000000    -0.603000000    -5.634000000
H    -1.513000000    -1.162000000    -4.922000000
H    -1.856000000    -1.181000000    -6.396000000
O    -0.959000000    -2.608000000     6.091000000
H    -0.547000000    -1.932000000     5.553000000
H    -0.787000000    -2.335000000     6.992000000
O    -1.957000000     1.867000000    -3.075000000
H    -1.202000000     2.427000000    -3.253000000
H    -1.712000000     1.376000000    -2.291000000
O    -4.370000000     2.560000000    -4.271000000
H    -4.610000000     1.725000000    -4.673000000
H    -3.686000000     2.334000000    -3.640000000
O     2.105000000    -2.984000000    -3.624000000
H     2.924000000    -2.491000000    -3.682000000
H     1.995000000    -3.157000000    -2.689000000
O     3.149000000     0.047000000     1.324000000
H     3.659000000     0.701000000     0.846000000
H     2.318000000     0.000000000     0.850000000
O     3.946000000    -3.843000000     0.803000000
H     3.094000000    -4.060000000     0.424000000
H     4.510000000    -4.577000000     0.560000000
O     0.589000000     1.157000000    -4.963000000
H     0.491000000     1.603000000    -4.122000000
H    -0.284000000     0.814000000    -5.155000000
O     4.672000000     3.722000000     0.038000000
H     4.751000000     2.772000000    -0.049000000
H     5.190000000     3.935000000     0.815000000
O    -3.354000000     1.790000000     2.393000000
H    -2.830000000     1.801000000     3.194000000
H    -4.259000000     1.748000000     2.700000000
O    -2.161000000    -5.055000000     4.606000000
H    -2.055000000    -4.443000000     5.334000000
H    -1.321000000    -5.028000000     4.147000000
O     4.165000000    -1.651000000    -0.960000000
H     3.797000000    -2.313000000    -0.376000000
H     4.070000000    -2.025000000    -1.836000000
O    -3.786000000     2.270000000    -0.194000000
H    -3.382000000     2.006000000     0.633000000
H    -3.606000000     1.544000000    -0.791000000
