144
-2799.70970
O    -2.480000000    -2.208000000     0.682000000
H    -2.998000000    -1.887000000     1.420000000
H    -1.872000000    -1.494000000     0.488000000
O     1.227000000     2.906000000    -4.424000000
H     2.038000000     2.556000000    -4.793000000
H     0.685000000     3.107000000    -5.187000000
O    -2.837000000     4.304000000    -3.893000000
H    -3.300000000     5.134000000    -4.003000000
H    -3.467000000     3.640000000    -4.174000000
O     7.003000000    -0.237000000    -2.263000000
H     6.971000000    -1.169000000    -2.480000000
H     6.483000000    -0.159000000    -1.463000000
O     1.128000000    -4.729000000    -3.401000000
H     1.265000000    -3.844000000    -3.739000000
H     1.929000000    -4.927000000    -2.916000000
O     3.709000000    -1.169000000    -3.052000000
H     3.483000000    -1.545000000    -2.201000000
H     4.404000000    -0.540000000    -2.859000000
O     0.363000000     4.945000000     1.942000000
H    -0.243000000     5.277000000     1.280000000
H     0.954000000     4.368000000     1.458000000
O     1.388000000    -2.933000000     5.237000000
H     1.604000000    -3.530000000     5.954000000
H     2.229000000    -2.747000000     4.820000000
O    -1.093000000    -5.791000000     4.538000000
H    -0.412000000    -6.022000000     5.169000000
H    -1.104000000    -4.834000000     4.536000000
O    -0.484000000     3.482000000    -6.351000000
H    -1.319000000     3.389000000    -5.891000000
H    -0.470000000     4.394000000    -6.639000000
O    -4.721000000     1.926000000    -4.908000000
H    -4.010000000     1.571000000    -4.374000000
H    -4.289000000     2.249000000    -5.699000000
O    -3.453000000    -0.366000000    -2.947000000
H    -2.986000000    -1.166000000    -3.191000000
H    -2.838000000     0.340000000    -3.145000000
O    -1.561000000    -4.504000000    -3.532000000
H    -1.538000000    -3.712000000    -4.069000000
H    -0.642000000    -4.752000000    -3.431000000
O    -1.405000000    -3.131000000     4.662000000
H    -2.138000000    -2.719000000     4.205000000
H    -0.706000000    -2.477000000     4.631000000
O     3.316000000    -6.980000000    -0.105000000
H     3.166000000    -6.662000000     0.785000000
H     2.991000000    -6.278000000    -0.668000000
O    -1.203000000    -4.724000000     0.472000000
H    -0.422000000    -4.374000000     0.043000000
H    -1.736000000    -3.952000000     0.664000000
O     1.948000000     2.102000000     4.447000000
H     2.329000000     1.439000000     5.022000000
H     1.125000000     2.343000000     4.873000000
O     1.363000000    -1.915000000    -4.474000000
H     1.843000000    -1.143000000    -4.173000000
H     1.981000000    -2.377000000    -5.040000000
O    -4.587000000     0.757000000     2.116000000
H    -3.954000000     1.420000000     2.391000000
H    -4.446000000     0.666000000     1.174000000
O    -0.002000000    -0.465000000     4.944000000
H     0.662000000    -1.094000000     5.229000000
H     0.410000000     0.006000000     4.220000000
O    -4.395000000     4.008000000    -0.320000000
H    -3.714000000     4.561000000     0.064000000
H    -3.930000000     3.224000000    -0.612000000
O     0.972000000    -7.726000000     3.195000000
H     1.275000000    -7.000000000     2.649000000
H     0.339000000    -7.328000000     3.793000000
O    -1.667000000     1.594000000    -4.263000000
H    -1.599000000     1.293000000    -5.169000000
H    -0.809000000     1.972000000    -4.070000000
O    -5.003000000     0.022000000    -0.878000000
H    -5.584000000     0.516000000    -1.457000000
H    -4.429000000    -0.463000000    -1.471000000
O     4.490000000     0.693000000     2.167000000
H     4.372000000     0.617000000     1.220000000
H     4.057000000    -0.083000000     2.524000000
O     4.505000000     2.758000000    -4.128000000
H     4.670000000     1.820000000    -4.228000000
H     5.376000000     3.149000000    -4.058000000
O    -0.169000000     6.384000000    -0.381000000
H     0.269000000     7.235000000    -0.407000000
H    -0.166000000     6.086000000    -1.291000000
O     2.082000000     2.749000000     1.543000000
H     1.488000000     2.162000000     1.076000000
H     2.072000000     2.431000000     2.446000000
O    -3.079000000     3.060000000     3.330000000
H    -2.629000000     3.692000000     2.769000000
H    -2.447000000     2.861000000     4.021000000
O    -2.585000000     5.536000000     1.116000000
H    -1.818000000     5.933000000     0.704000000
H    -2.792000000     6.117000000     1.847000000
O     3.395000000    -1.680000000     3.173000000
H     2.958000000    -2.181000000     2.485000000
H     4.091000000    -2.259000000     3.485000000
O    -3.441000000    -1.433000000     3.100000000
H    -4.096000000    -1.894000000     3.625000000
H    -3.795000000    -0.549000000     2.998000000
O     4.112000000     3.105000000    -0.188000000
H     3.555000000     3.061000000     0.589000000
H     3.502000000     3.049000000    -0.924000000
O    -0.658000000     3.843000000     4.814000000
H    -1.255000000     4.506000000     5.163000000
H    -0.218000000     4.278000000     4.084000000
O     3.319000000    -4.893000000    -1.637000000
H     3.320000000    -4.070000000    -1.147000000
H     4.245000000    -5.113000000    -1.737000000
O    -6.623000000     4.367000000    -2.022000000
H    -6.630000000     3.477000000    -2.376000000
H    -5.849000000     4.394000000    -1.459000000
O     4.461000000    -5.007000000     3.885000000
H     5.078000000    -4.982000000     4.617000000
H     4.957000000    -5.401000000     3.167000000
O     5.761000000    -5.498000000     1.679000000
H     5.461000000    -5.503000000     0.770000000
H     6.583000000    -5.009000000     1.657000000
O     4.993000000    -0.364000000    -0.246000000
H     5.616000000    -0.881000000     0.265000000
H     4.331000000    -0.996000000    -0.527000000
O    -6.639000000     1.250000000    -2.881000000
H    -6.082000000     1.395000000    -3.646000000
H    -7.496000000     1.588000000    -3.142000000
O    -6.330000000     1.136000000     4.103000000
H    -5.472000000     0.963000000     3.715000000
H    -6.132000000     1.511000000     4.962000000
O     3.085000000    -0.119000000     5.395000000
H     3.248000000    -0.704000000     4.655000000
H     3.884000000    -0.169000000     5.921000000
O    -0.096000000     4.840000000    -2.856000000
H    -1.031000000     4.650000000    -2.928000000
H     0.332000000     4.108000000    -3.301000000
O    -6.395000000     4.838000000     1.536000000
H    -6.555000000     5.768000000     1.377000000
H    -5.707000000     4.603000000     0.914000000
O    -2.314000000     0.720000000     5.877000000
H    -1.538000000     0.364000000     5.443000000
H    -1.972000000     1.401000000     6.456000000
O    -1.569000000    -1.870000000    -4.974000000
H    -0.740000000    -1.856000000    -4.496000000
H    -1.345000000    -1.558000000    -5.851000000
O     2.168000000    -5.578000000     2.227000000
H     1.978000000    -4.808000000     1.691000000
H     2.636000000    -5.232000000     2.987000000
O     4.706000000     0.274000000    -5.412000000
H     5.156000000    -0.134000000    -6.153000000
H     4.294000000    -0.457000000    -4.951000000
