144
-2824.45083
O     1.457000000    -5.873000000     0.466000000
H     1.127000000    -5.269000000    -0.199000000
H     2.373000000    -6.013000000     0.229000000
O    -3.491000000    -2.332000000     1.710000000
H    -4.357000000    -2.728000000     1.609000000
H    -2.893000000    -2.957000000     1.300000000
O    -0.359000000     3.207000000     3.938000000
H     0.175000000     2.482000000     3.614000000
H    -0.097000000     3.955000000     3.402000000
O    -0.482000000     7.285000000     1.292000000
H    -0.967000000     7.501000000     0.495000000
H     0.043000000     8.065000000     1.471000000
O    -0.303000000    -7.020000000     2.287000000
H     0.374000000    -6.666000000     1.710000000
H     0.044000000    -7.865000000     2.573000000
O    -5.073000000     1.677000000     2.091000000
H    -4.428000000     1.252000000     2.656000000
H    -5.183000000     2.550000000     2.469000000
O     3.012000000    -0.654000000    -5.160000000
H     3.930000000    -0.776000000    -4.919000000
H     2.897000000    -1.188000000    -5.946000000
O    -2.523000000    -5.418000000    -0.995000000
H    -3.251000000    -5.473000000    -0.374000000
H    -1.859000000    -4.902000000    -0.539000000
O    -3.830000000    -0.258000000     3.490000000
H    -3.858000000    -1.155000000     3.156000000
H    -4.341000000    -0.288000000     4.299000000
O     2.708000000     2.046000000    -3.488000000
H     1.881000000     1.698000000    -3.822000000
H     2.517000000     2.960000000    -3.279000000
O     1.685000000    -8.767000000    -1.608000000
H     1.894000000    -7.883000000    -1.303000000
H     1.749000000    -9.312000000    -0.824000000
O     3.727000000     4.354000000     3.356000000
H     4.119000000     3.629000000     3.843000000
H     3.093000000     4.735000000     3.964000000
O    -2.472000000     6.171000000    -3.232000000
H    -1.595000000     6.318000000    -2.878000000
H    -3.056000000     6.616000000    -2.618000000
O     4.109000000    -1.961000000    -2.033000000
H     4.502000000    -1.487000000    -2.766000000
H     4.101000000    -1.328000000    -1.315000000
O    -4.597000000    -5.090000000     0.586000000
H    -4.720000000    -5.919000000     1.048000000
H    -5.391000000    -4.989000000     0.060000000
O    -2.877000000     3.415000000     4.948000000
H    -1.961000000     3.577000000     4.722000000
H    -2.837000000     2.854000000     5.722000000
O     1.471000000     1.567000000     3.368000000
H     1.897000000     0.761000000     3.075000000
H     2.194000000     2.161000000     3.567000000
O    -0.227000000    -7.836000000    -3.235000000
H     0.063000000    -6.928000000    -3.327000000
H     0.172000000    -8.133000000    -2.417000000
O    -1.177000000    -4.451000000     3.141000000
H    -1.180000000    -5.407000000     3.165000000
H    -1.109000000    -4.235000000     2.211000000
O    -4.679000000     4.121000000     3.150000000
H    -4.116000000     3.797000000     3.853000000
H    -5.207000000     4.804000000     3.562000000
O     0.234000000     2.242000000    -4.654000000
H    -0.629000000     2.381000000    -4.264000000
H     0.563000000     3.123000000    -4.829000000
O    -2.527000000    -3.272000000    -3.083000000
H    -3.401000000    -3.517000000    -2.778000000
H    -1.930000000    -3.712000000    -2.477000000
O     3.215000000    -0.283000000     0.530000000
H     2.594000000    -0.046000000    -0.158000000
H     2.683000000    -0.724000000     1.192000000
O     0.485000000     2.061000000     6.400000000
H     1.215000000     1.454000000     6.272000000
H     0.203000000     2.286000000     5.514000000
O     0.907000000     5.559000000     2.747000000
H     1.017000000     6.142000000     3.498000000
H     0.419000000     6.079000000     2.109000000
O     2.874000000    -5.014000000    -4.717000000
H     3.533000000    -5.275000000    -4.074000000
H     3.318000000    -4.369000000    -5.268000000
O     5.700000000     4.803000000     1.479000000
H     5.528000000     3.874000000     1.323000000
H     4.913000000     5.120000000     1.922000000
O     2.383000000     4.656000000    -2.489000000
H     1.609000000     5.217000000    -2.456000000
H     2.696000000     4.626000000    -1.585000000
O     5.573000000     1.727000000     0.293000000
H     4.738000000     1.262000000     0.230000000
H     6.046000000     1.276000000     0.992000000
O    -3.740000000    -4.260000000     4.184000000
H    -3.614000000    -5.192000000     4.359000000
H    -2.894000000    -3.962000000     3.849000000
O    -4.534000000     6.416000000     0.731000000
H    -3.852000000     6.709000000     1.336000000
H    -4.300000000     5.510000000     0.527000000
O    -1.149000000    -0.046000000     4.193000000
H    -2.049000000     0.139000000     3.923000000
H    -0.607000000     0.423000000     3.558000000
O    -2.353000000    -0.656000000    -2.058000000
H    -1.465000000    -0.738000000    -1.709000000
H    -2.533000000    -1.508000000    -2.456000000
O     2.619000000    -3.742000000     1.891000000
H     2.049000000    -4.349000000     1.418000000
H     2.203000000    -3.642000000     2.747000000
O     5.381000000     1.843000000    -3.845000000
H     4.434000000     1.754000000    -3.735000000
H     5.621000000     1.131000000    -4.438000000
O    -1.495000000    -7.865000000     0.118000000
H    -1.753000000    -7.120000000    -0.426000000
H    -1.209000000    -7.471000000     0.942000000
O    -2.228000000     2.139000000    -3.156000000
H    -2.257000000     1.272000000    -2.751000000
H    -2.863000000     2.656000000    -2.660000000
O     0.560000000     6.749000000    -1.751000000
H     0.825000000     6.613000000    -0.841000000
H     1.119000000     7.463000000    -2.059000000
O     0.281000000    -0.505000000    -4.603000000
H     0.186000000     0.447000000    -4.638000000
H     1.224000000    -0.655000000    -4.665000000
O     0.776000000    -2.680000000     3.673000000
H     0.178000000    -2.137000000     4.186000000
H     0.238000000    -3.414000000     3.376000000
O    -3.208000000     4.248000000    -0.294000000
H    -2.490000000     3.866000000     0.211000000
H    -3.781000000     3.507000000    -0.494000000
O    -4.855000000     0.005000000    -2.581000000
H    -4.017000000    -0.332000000    -2.265000000
H    -5.159000000     0.584000000    -1.882000000
O     0.355000000    -5.225000000    -3.158000000
H     1.166000000    -5.073000000    -3.643000000
H     0.419000000    -4.648000000    -2.397000000
O     3.077000000    -1.039000000     3.383000000
H     2.472000000    -1.781000000     3.388000000
H     3.946000000    -1.440000000     3.367000000
O     3.195000000    -4.459000000    -1.511000000
H     2.284000000    -4.169000000    -1.450000000
H     3.689000000    -3.660000000    -1.695000000
O     3.984000000    -6.941000000    -0.265000000
H     4.482000000    -7.016000000     0.549000000
H     4.172000000    -6.057000000    -0.580000000
O     2.576000000     5.908000000     0.311000000
H     2.518000000     6.863000000     0.322000000
H     2.435000000     5.649000000     1.221000000
O    -4.573000000     1.826000000    -0.524000000
H    -5.392000000     2.311000000    -0.626000000
H    -4.615000000     1.469000000     0.363000000
