144
-2830.43123
O    -2.846000000    -3.016000000    -1.649000000
H    -3.737000000    -3.133000000    -1.320000000
H    -2.291000000    -3.108000000    -0.874000000
O     5.292000000    -2.055000000    -0.016000000
H     4.453000000    -2.373000000     0.316000000
H     5.295000000    -2.306000000    -0.940000000
O    -0.365000000     0.889000000    -2.995000000
H     0.487000000     1.241000000    -3.251000000
H    -0.228000000     0.550000000    -2.110000000
O    -5.429000000     0.087000000    -1.802000000
H    -5.598000000    -0.826000000    -2.033000000
H    -4.608000000     0.299000000    -2.246000000
O     0.194000000    -4.968000000    -4.064000000
H    -0.745000000    -4.810000000    -4.154000000
H     0.436000000    -5.441000000    -4.860000000
O     3.041000000    -7.294000000     0.664000000
H     3.122000000    -6.397000000     0.338000000
H     2.212000000    -7.301000000     1.142000000
O    -5.918000000     4.464000000    -0.096000000
H    -5.361000000     3.731000000     0.168000000
H    -5.304000000     5.165000000    -0.314000000
O     2.174000000     4.768000000    -2.552000000
H     2.521000000     3.940000000    -2.883000000
H     2.316000000     4.727000000    -1.606000000
O    -0.910000000     6.314000000     2.350000000
H    -0.441000000     6.522000000     1.542000000
H    -0.473000000     6.837000000     3.022000000
O    -3.893000000     2.890000000     0.380000000
H    -3.534000000     2.479000000    -0.406000000
H    -3.131000000     3.249000000     0.834000000
O    -2.757000000     1.850000000    -2.110000000
H    -2.638000000     2.770000000    -2.342000000
H    -2.002000000     1.405000000    -2.496000000
O    -5.339000000     3.324000000     3.093000000
H    -4.460000000     3.578000000     2.813000000
H    -5.835000000     3.238000000     2.279000000
O    -1.245000000    -6.312000000    -1.003000000
H    -0.308000000    -6.322000000    -1.196000000
H    -1.406000000    -5.442000000    -0.639000000
O     5.725000000    -5.302000000    -0.604000000
H     5.013000000    -4.871000000    -0.131000000
H     6.140000000    -5.864000000     0.051000000
O     0.117000000    -5.438000000     1.989000000
H    -0.546000000    -6.125000000     1.921000000
H     0.080000000    -4.984000000     1.147000000
O    -1.792000000    -2.609000000     3.908000000
H    -2.552000000    -2.029000000     3.968000000
H    -1.061000000    -2.026000000     3.702000000
O    -2.205000000    -8.322000000    -2.360000000
H    -1.386000000    -8.704000000    -2.046000000
H    -2.133000000    -7.392000000    -2.146000000
O     0.279000000     5.393000000    -4.555000000
H     1.064000000     4.881000000    -4.363000000
H     0.531000000     6.297000000    -4.370000000
O     4.024000000     3.600000000    -0.552000000
H     4.188000000     2.677000000    -0.359000000
H     4.662000000     3.819000000    -1.231000000
O     4.954000000     0.838000000    -0.110000000
H     4.921000000    -0.109000000    -0.246000000
H     4.880000000     0.947000000     0.838000000
O    -4.234000000     6.531000000    -0.105000000
H    -3.955000000     6.551000000     0.811000000
H    -3.848000000     7.318000000    -0.490000000
O     0.103000000     6.939000000    -0.145000000
H     0.111000000     6.166000000    -0.709000000
H     0.623000000     7.587000000    -0.619000000
O    -5.297000000    -3.228000000    -0.061000000
H    -6.002000000    -2.939000000     0.518000000
H    -4.567000000    -3.419000000     0.529000000
O    -3.112000000    -3.432000000     1.384000000
H    -2.495000000    -4.090000000     1.066000000
H    -2.753000000    -3.153000000     2.227000000
O     5.510000000    -1.299000000    -3.349000000
H     6.283000000    -1.812000000    -3.115000000
H     4.788000000    -1.927000000    -3.318000000
O    -2.710000000     4.420000000     2.597000000
H    -3.400000000     4.907000000     2.146000000
H    -1.990000000     5.045000000     2.680000000
O     3.259000000    -5.254000000    -4.256000000
H     3.301000000    -5.595000000    -3.362000000
H     3.763000000    -5.879000000    -4.775000000
O    -4.660000000    -5.940000000    -1.415000000
H    -5.154000000    -5.198000000    -1.066000000
H    -4.134000000    -6.247000000    -0.676000000
O     2.594000000    -4.195000000     3.458000000
H     2.895000000    -4.394000000     4.344000000
H     1.641000000    -4.275000000     3.504000000
O     1.970000000     2.089000000    -4.060000000
H     1.662000000     2.281000000    -4.946000000
H     2.895000000     1.870000000    -4.170000000
O    -2.052000000     0.979000000     5.786000000
H    -2.055000000     1.910000000     5.567000000
H    -2.694000000     0.590000000     5.191000000
O    -3.626000000    -0.795000000     4.322000000
H    -4.360000000    -0.676000000     4.925000000
H    -3.915000000    -0.382000000     3.508000000
O     5.209000000    -0.044000000     2.519000000
H     4.529000000    -0.688000000     2.322000000
H     5.842000000    -0.522000000     3.055000000
O     1.212000000    -5.792000000    -1.754000000
H     0.886000000    -5.469000000    -2.593000000
H     1.128000000    -5.046000000    -1.160000000
O     3.648000000     5.527000000     1.501000000
H     3.649000000     5.197000000     0.602000000
H     4.321000000     5.012000000     1.946000000
O     4.497000000     1.076000000    -4.170000000
H     4.965000000     1.297000000    -4.975000000
H     4.686000000     0.148000000    -4.030000000
O     3.323000000    -3.051000000    -2.720000000
H     3.130000000    -3.353000000    -3.608000000
H     2.608000000    -3.400000000    -2.188000000
O     1.703000000     0.648000000     3.036000000
H     1.268000000     0.146000000     3.725000000
H     0.992000000     0.938000000     2.465000000
O     5.329000000     3.426000000    -2.938000000
H     6.208000000     3.546000000    -3.300000000
H     4.978000000     2.671000000    -3.409000000
O     3.541000000    -4.515000000     0.624000000
H     2.726000000    -4.240000000     0.204000000
H     3.336000000    -4.524000000     1.559000000
O    -2.532000000    -1.145000000    -3.795000000
H    -1.728000000    -0.667000000    -3.593000000
H    -2.725000000    -1.637000000    -2.997000000
O    -3.709000000    -6.710000000     1.119000000
H    -3.690000000    -6.077000000     1.837000000
H    -3.937000000    -7.540000000     1.537000000
O    -0.504000000    -8.702000000     0.049000000
H    -1.149000000    -8.006000000    -0.069000000
H     0.010000000    -8.427000000     0.808000000
O    -4.263000000    -0.037000000     1.533000000
H    -4.387000000    -0.782000000     0.945000000
H    -4.514000000     0.724000000     1.011000000
O     4.182000000     1.884000000     3.932000000
H     3.326000000     1.541000000     3.675000000
H     4.808000000     1.245000000     3.590000000
O     3.313000000    -1.879000000     2.107000000
H     2.639000000    -1.242000000     2.345000000
H     3.028000000    -2.694000000     2.520000000
O    -2.000000000     4.524000000    -2.959000000
H    -2.331000000     5.421000000    -2.994000000
H    -1.121000000     4.577000000    -3.334000000
O     2.501000000     6.013000000     4.272000000
H     2.046000000     5.176000000     4.366000000
H     2.979000000     5.934000000     3.446000000
