144
-2784.93572
O    -1.652000000    -4.391000000    -2.187000000
H    -0.904000000    -4.411000000    -2.783000000
H    -1.263000000    -4.438000000    -1.313000000
O     4.191000000    -3.957000000    -0.229000000
H     4.275000000    -4.870000000     0.046000000
H     3.250000000    -3.830000000    -0.355000000
O    -0.684000000    -0.837000000    -3.247000000
H    -0.205000000    -0.063000000    -3.541000000
H    -0.789000000    -0.710000000    -2.304000000
O    -4.902000000    -1.945000000     1.478000000
H    -4.089000000    -2.435000000     1.352000000
H    -5.289000000    -1.896000000     0.604000000
O    -4.778000000     0.629000000     4.999000000
H    -4.411000000     0.952000000     4.176000000
H    -5.468000000     1.256000000     5.217000000
O     3.810000000     2.906000000     4.942000000
H     3.290000000     3.372000000     5.597000000
H     3.306000000     2.989000000     4.133000000
O     2.223000000    -7.416000000     3.214000000
H     1.625000000    -8.146000000     3.377000000
H     2.035000000    -7.149000000     2.314000000
O     0.929000000     4.379000000    -3.769000000
H     1.235000000     4.289000000    -4.672000000
H     1.479000000     3.777000000    -3.268000000
O    -0.735000000     6.809000000    -0.171000000
H    -0.574000000     6.911000000    -1.109000000
H    -0.803000000     7.704000000     0.160000000
O     0.067000000    -2.962000000     4.774000000
H     0.236000000    -2.333000000     4.073000000
H    -0.887000000    -2.998000000     4.839000000
O    -1.719000000     4.974000000    -5.935000000
H    -1.353000000     4.486000000    -6.672000000
H    -1.794000000     4.328000000    -5.233000000
O    -4.918000000     2.294000000    -0.585000000
H    -4.220000000     2.949000000    -0.618000000
H    -5.721000000     2.805000000    -0.491000000
O    -3.314000000     4.544000000    -0.902000000
H    -3.912000000     5.291000000    -0.895000000
H    -2.730000000     4.711000000    -1.642000000
O     1.220000000    -5.906000000     1.208000000
H     0.321000000    -5.934000000     1.535000000
H     1.275000000    -5.082000000     0.725000000
O     5.386000000     1.169000000     0.117000000
H     4.920000000     1.981000000     0.317000000
H     5.041000000     0.534000000     0.744000000
O    -4.547000000    -5.415000000     1.397000000
H    -4.844000000    -5.357000000     2.304000000
H    -3.727000000    -4.921000000     1.381000000
O     4.331000000    -1.073000000    -2.664000000
H     3.524000000    -1.539000000    -2.881000000
H     4.957000000    -1.764000000    -2.448000000
O     3.212000000    -6.542000000    -0.377000000
H     2.450000000    -6.133000000     0.034000000
H     2.843000000    -7.101000000    -1.062000000
O     6.461000000     0.589000000    -2.106000000
H     5.851000000     0.027000000    -2.583000000
H     6.041000000     0.732000000    -1.257000000
O     5.271000000     4.256000000    -1.648000000
H     4.884000000     3.398000000    -1.823000000
H     5.054000000     4.433000000    -0.733000000
O    -0.047000000     5.205000000     2.466000000
H    -0.878000000     4.871000000     2.804000000
H    -0.279000000     5.636000000     1.643000000
O    -5.502000000    -2.226000000    -1.510000000
H    -5.137000000    -3.107000000    -1.594000000
H    -5.473000000    -1.868000000    -2.397000000
O    -2.424000000    -3.710000000     1.698000000
H    -1.590000000    -3.869000000     1.256000000
H    -2.195000000    -3.638000000     2.624000000
O     3.670000000     1.938000000    -2.701000000
H     3.940000000     1.083000000    -2.366000000
H     3.274000000     1.747000000    -3.551000000
O    -2.344000000     2.343000000    -4.792000000
H    -1.727000000     1.700000000    -5.142000000
H    -3.075000000     1.820000000    -4.465000000
O    -2.782000000     4.334000000     2.299000000
H    -3.562000000     4.789000000     2.617000000
H    -2.723000000     4.578000000     1.375000000
O    -4.293000000    -4.496000000    -2.120000000
H    -3.358000000    -4.467000000    -2.322000000
H    -4.416000000    -5.334000000    -1.674000000
O     2.798000000    -2.781000000     2.385000000
H     3.427000000    -3.436000000     2.688000000
H     2.449000000    -3.143000000     1.570000000
O     1.893000000     1.096000000    -4.854000000
H     1.293000000     1.203000000    -5.592000000
H     2.510000000     0.423000000    -5.143000000
O    -1.634000000     2.397000000     6.361000000
H    -0.951000000     3.051000000     6.508000000
H    -1.765000000     2.397000000     5.412000000
O     0.761000000     1.155000000     3.739000000
H    -0.130000000     1.467000000     3.902000000
H     0.650000000     0.242000000     3.473000000
O    -4.329000000     0.881000000     2.425000000
H    -4.523000000     0.028000000     2.036000000
H    -4.370000000     1.493000000     1.690000000
O    -1.863000000     2.217000000     3.697000000
H    -2.595000000     1.607000000     3.608000000
H    -2.105000000     2.964000000     3.151000000
O    -2.877000000    -1.208000000    -5.009000000
H    -2.336000000    -1.038000000    -5.780000000
H    -2.251000000    -1.282000000    -4.289000000
O     3.864000000    -5.103000000     3.376000000
H     3.614000000    -5.010000000     4.296000000
H     3.484000000    -5.940000000     3.108000000
O     0.517000000     6.860000000     5.033000000
H     0.651000000     6.372000000     4.220000000
H     1.386000000     7.190000000     5.262000000
O     1.944000000    -4.088000000    -2.684000000
H     2.674000000    -4.626000000    -2.990000000
H     2.024000000    -4.096000000    -1.730000000
O     0.715000000    -2.759000000    -4.767000000
H     1.269000000    -3.306000000    -4.210000000
H     0.357000000    -2.098000000    -4.174000000
O     2.500000000     2.890000000     2.332000000
H     1.873000000     2.215000000     2.591000000
H     1.973000000     3.684000000     2.243000000
O     3.332000000     7.195000000     2.179000000
H     3.910000000     6.571000000     2.617000000
H     2.775000000     6.654000000     1.619000000
O     6.356000000    -2.586000000     1.074000000
H     5.792000000    -2.862000000     0.351000000
H     5.768000000    -2.130000000     1.676000000
O     6.143000000    -3.237000000    -2.028000000
H     6.826000000    -3.893000000    -2.168000000
H     5.471000000    -3.695000000    -1.522000000
O     4.499000000    -0.596000000     1.942000000
H     3.871000000    -1.222000000     1.581000000
H     4.165000000    -0.400000000     2.817000000
O    -5.075000000     3.047000000    -3.663000000
H    -4.489000000     3.770000000    -3.437000000
H    -5.431000000     3.287000000    -4.519000000
O     4.410000000     4.014000000     0.904000000
H     4.729000000     4.597000000     1.593000000
H     3.852000000     3.385000000     1.363000000
O     0.346000000    -1.503000000     2.747000000
H    -0.338000000    -1.326000000     2.101000000
H     1.075000000    -1.853000000     2.235000000
O    -0.774000000     6.434000000    -3.098000000
H    -1.643000000     6.237000000    -3.446000000
H    -0.256000000     5.652000000    -3.289000000
O    -1.553000000    -7.341000000     0.858000000
H    -1.170000000    -7.555000000     0.007000000
H    -2.290000000    -6.767000000     0.651000000
