144
-2828.10821
O    -3.476000000    -1.421000000     4.577000000
H    -4.423000000    -1.286000000     4.534000000
H    -3.342000000    -2.295000000     4.210000000
O    -0.608000000     0.277000000    -6.172000000
H    -1.094000000     1.030000000    -5.833000000
H     0.098000000     0.144000000    -5.540000000
O    -4.433000000    -1.213000000    -4.181000000
H    -3.935000000    -1.786000000    -3.598000000
H    -3.871000000    -1.106000000    -4.949000000
O     5.764000000     0.806000000    -4.161000000
H     5.721000000    -0.131000000    -3.972000000
H     6.601000000     1.087000000    -3.790000000
O     3.790000000     2.000000000    -2.593000000
H     3.758000000     1.175000000    -2.109000000
H     4.412000000     1.838000000    -3.302000000
O    -3.120000000     3.668000000     2.132000000
H    -2.835000000     4.084000000     1.319000000
H    -4.076000000     3.668000000     2.079000000
O     4.405000000     0.409000000     4.880000000
H     4.869000000    -0.377000000     5.168000000
H     4.658000000     1.082000000     5.512000000
O     1.558000000    -4.119000000     2.450000000
H     2.239000000    -4.460000000     1.869000000
H     1.985000000    -4.046000000     3.303000000
O     4.342000000    -5.442000000    -1.789000000
H     3.639000000    -5.228000000    -2.402000000
H     4.307000000    -4.746000000    -1.133000000
O    -2.232000000    -2.639000000    -2.908000000
H    -1.363000000    -2.843000000    -2.562000000
H    -2.835000000    -3.125000000    -2.345000000
O     0.183000000    -4.538000000    -2.250000000
H     1.064000000    -4.335000000    -2.565000000
H     0.119000000    -4.084000000    -1.409000000
O     0.154000000    -3.484000000     0.289000000
H     0.250000000    -2.532000000     0.335000000
H     0.620000000    -3.810000000     1.059000000
O     3.850000000    -3.691000000     0.360000000
H     4.159000000    -4.086000000     1.175000000
H     3.714000000    -2.768000000     0.577000000
O    -2.027000000     0.623000000     5.436000000
H    -2.681000000     1.251000000     5.128000000
H    -2.372000000    -0.230000000     5.173000000
O     2.171000000    -2.956000000    -5.456000000
H     2.515000000    -2.078000000    -5.617000000
H     1.748000000    -3.203000000    -6.279000000
O    -0.362000000     4.605000000    -3.136000000
H    -0.665000000     3.907000000    -3.717000000
H    -0.904000000     5.360000000    -3.364000000
O    -5.783000000     1.242000000    -1.122000000
H    -5.737000000     2.182000000    -0.949000000
H    -5.189000000     1.105000000    -1.860000000
O    -1.952000000     2.335000000    -4.559000000
H    -2.079000000     2.863000000    -5.347000000
H    -2.633000000     2.635000000    -3.957000000
O    -6.484000000     1.538000000     4.199000000
H    -7.267000000     1.341000000     4.713000000
H    -6.743000000     1.371000000     3.293000000
O     3.254000000    -3.402000000     4.695000000
H     3.236000000    -2.445000000     4.678000000
H     2.923000000    -3.632000000     5.563000000
O    -2.105000000    -2.109000000    -5.567000000
H    -1.636000000    -1.374000000    -5.962000000
H    -1.892000000    -2.057000000    -4.635000000
O     1.566000000     3.454000000     2.637000000
H     0.683000000     3.099000000     2.533000000
H     2.127000000     2.682000000     2.711000000
O    -5.175000000     1.457000000    -3.853000000
H    -5.517000000     1.540000000    -4.743000000
H    -4.832000000     0.564000000    -3.811000000
O     0.720000000     3.758000000     5.577000000
H     0.520000000     3.514000000     4.673000000
H    -0.113000000     4.067000000     5.931000000
O     6.102000000     0.602000000    -0.774000000
H     6.515000000     0.669000000    -1.635000000
H     5.505000000    -0.142000000    -0.852000000
O    -2.254000000    -3.933000000     3.135000000
H    -2.777000000    -4.701000000     2.906000000
H    -1.455000000    -4.024000000     2.615000000
O    -0.985000000     2.645000000     3.700000000
H    -1.058000000     1.798000000     4.140000000
H    -1.839000000     2.775000000     3.288000000
O     3.341000000    -0.552000000    -5.858000000
H     4.105000000    -0.062000000    -6.161000000
H     2.698000000     0.122000000    -5.636000000
O    -2.094000000     5.155000000     0.016000000
H    -1.814000000     6.061000000    -0.115000000
H    -1.294000000     4.689000000     0.256000000
O     5.797000000    -1.790000000     5.075000000
H     5.973000000    -2.667000000     5.415000000
H     5.714000000    -1.911000000     4.130000000
O    -3.778000000     5.159000000    -2.648000000
H    -4.507000000     4.955000000    -2.062000000
H    -3.050000000     5.365000000    -2.062000000
O     1.544000000     1.277000000    -4.595000000
H     1.519000000     2.051000000    -5.158000000
H     2.090000000     1.537000000    -3.854000000
O     3.539000000     3.789000000     0.453000000
H     2.756000000     4.300000000     0.658000000
H     3.487000000     3.029000000     1.033000000
O     7.626000000    -3.697000000     1.421000000
H     7.486000000    -4.331000000     0.718000000
H     6.843000000    -3.148000000     1.409000000
O     3.643000000     1.336000000     2.249000000
H     3.762000000     0.660000000     1.581000000
H     3.907000000     0.914000000     3.066000000
O    -6.394000000    -2.208000000     2.124000000
H    -6.695000000    -2.778000000     1.417000000
H    -7.082000000    -1.548000000     2.209000000
O    -7.223000000     0.737000000     1.649000000
H    -6.475000000     0.550000000     1.082000000
H    -7.517000000     1.608000000     1.379000000
O     2.524000000    -3.267000000    -2.573000000
H     2.304000000    -2.761000000    -3.355000000
H     2.992000000    -2.649000000    -2.011000000
O     5.816000000    -1.688000000     2.098000000
H     5.034000000    -1.390000000     1.635000000
H     6.300000000    -0.885000000     2.291000000
O     4.233000000    -4.918000000     2.753000000
H     4.824000000    -5.581000000     3.111000000
H     4.049000000    -4.338000000     3.492000000
O     5.876000000    -1.908000000    -2.693000000
H     5.530000000    -2.719000000    -3.067000000
H     5.128000000    -1.510000000    -2.249000000
O     7.270000000     0.646000000     1.739000000
H     6.929000000     0.351000000     0.895000000
H     8.008000000     1.213000000     1.514000000
O    -3.920000000     2.405000000     4.457000000
H    -4.764000000     2.030000000     4.203000000
H    -3.679000000     2.971000000     3.724000000
O     0.602000000    -1.579000000     5.431000000
H     0.775000000    -0.667000000     5.666000000
H    -0.198000000    -1.544000000     4.906000000
O     0.385000000     3.826000000    -0.559000000
H     0.217000000     3.990000000    -1.487000000
H     0.518000000     2.880000000    -0.503000000
O    -5.715000000     3.600000000     1.925000000
H    -6.289000000     4.282000000     2.276000000
H    -6.142000000     3.324000000     1.114000000
O    -7.837000000    -0.923000000    -1.685000000
H    -7.262000000    -0.160000000    -1.738000000
H    -7.749000000    -1.349000000    -2.537000000
O     8.582000000    -2.430000000    -1.912000000
H     7.777000000    -1.978000000    -2.164000000
H     8.862000000    -1.991000000    -1.109000000
