144
-2839.13817
O    -4.821000000    -5.774000000    -3.278000000
H    -4.892000000    -6.503000000    -2.663000000
H    -3.949000000    -5.412000000    -3.121000000
O    -3.491000000    -1.630000000    -1.579000000
H    -3.587000000    -1.927000000    -2.484000000
H    -2.719000000    -2.093000000    -1.255000000
O    -3.845000000    -6.297000000     1.043000000
H    -3.791000000    -6.873000000     1.806000000
H    -4.541000000    -5.677000000     1.260000000
O     5.125000000     0.507000000    -1.532000000
H     5.225000000    -0.336000000    -1.089000000
H     5.304000000     0.316000000    -2.453000000
O    -0.604000000     0.937000000    -3.392000000
H     0.049000000     1.518000000    -3.782000000
H    -0.231000000     0.691000000    -2.546000000
O    -0.223000000    -6.656000000    -3.042000000
H     0.115000000    -7.012000000    -3.864000000
H     0.549000000    -6.311000000    -2.595000000
O    -4.287000000     2.103000000     5.491000000
H    -4.928000000     1.888000000     4.813000000
H    -3.507000000     2.372000000     5.006000000
O     2.249000000    -1.430000000    -7.127000000
H     2.209000000    -2.270000000    -7.584000000
H     1.993000000    -1.634000000    -6.227000000
O     2.957000000    -4.126000000     2.693000000
H     2.171000000    -3.580000000     2.708000000
H     3.177000000    -4.253000000     3.616000000
O     1.416000000     4.173000000    -2.464000000
H     1.488000000     3.434000000    -3.068000000
H     2.256000000     4.189000000    -2.004000000
O     2.344000000    -0.457000000     4.837000000
H     3.172000000    -0.778000000     4.481000000
H     2.164000000     0.342000000     4.342000000
O    -5.832000000     3.393000000     1.251000000
H    -6.234000000     4.117000000     0.771000000
H    -5.711000000     2.708000000     0.593000000
O    -3.387000000     1.063000000    -3.372000000
H    -3.349000000     0.907000000    -2.428000000
H    -2.471000000     1.071000000    -3.650000000
O    -3.077000000     4.003000000     2.172000000
H    -2.702000000     4.563000000     1.494000000
H    -4.018000000     4.006000000     1.992000000
O     2.057000000    -5.932000000    -1.641000000
H     2.663000000    -5.578000000    -2.291000000
H     1.589000000    -5.166000000    -1.308000000
O     3.969000000    -3.107000000    -2.408000000
H     3.665000000    -3.155000000    -1.502000000
H     4.628000000    -3.797000000    -2.476000000
O    -1.351000000    -6.155000000     0.320000000
H    -2.301000000    -6.139000000     0.432000000
H    -1.151000000    -5.344000000    -0.147000000
O     4.578000000     4.560000000     2.934000000
H     4.449000000     5.390000000     3.393000000
H     5.420000000     4.237000000     3.255000000
O     0.511000000     6.807000000    -3.330000000
H     1.390000000     6.993000000    -3.659000000
H     0.586000000     5.945000000    -2.920000000
O    -2.791000000    -3.734000000     1.933000000
H    -3.267000000    -2.936000000     2.163000000
H    -2.472000000    -3.574000000     1.044000000
O     3.924000000     3.014000000    -1.664000000
H     4.116000000     2.076000000    -1.669000000
H     4.784000000     3.434000000    -1.642000000
O    -0.787000000     6.358000000     1.473000000
H    -0.766000000     6.152000000     2.408000000
H    -1.170000000     7.234000000     1.430000000
O     3.318000000    -6.817000000     1.565000000
H     4.246000000    -6.857000000     1.332000000
H     3.170000000    -5.901000000     1.801000000
O     1.982000000     7.098000000     1.649000000
H     2.705000000     6.552000000     1.340000000
H     1.195000000     6.643000000     1.350000000
O     3.494000000     5.353000000     0.285000000
H     3.621000000     4.717000000    -0.418000000
H     3.730000000     4.878000000     1.082000000
O    -5.035000000    -7.068000000    -1.061000000
H    -5.144000000    -7.969000000    -0.758000000
H    -4.598000000    -6.622000000    -0.336000000
O    -2.161000000    -4.701000000    -2.706000000
H    -1.726000000    -5.545000000    -2.822000000
H    -1.918000000    -4.426000000    -1.822000000
O     0.414000000    -2.810000000     2.544000000
H     0.253000000    -1.881000000     2.709000000
H    -0.351000000    -3.255000000     2.910000000
O     1.747000000     2.199000000    -4.291000000
H     1.417000000     2.651000000    -5.068000000
H     2.497000000     1.696000000    -4.607000000
O    -1.245000000    -4.178000000     4.621000000
H    -1.758000000    -4.010000000     3.831000000
H    -1.771000000    -3.809000000     5.331000000
O    -1.933000000     3.935000000     4.711000000
H    -1.584000000     4.813000000     4.864000000
H    -2.232000000     3.951000000     3.802000000
O    -3.943000000    -1.393000000     3.002000000
H    -4.514000000    -1.422000000     3.770000000
H    -4.508000000    -1.077000000     2.296000000
O    -0.983000000     4.881000000    -1.359000000
H    -0.170000000     4.461000000    -1.641000000
H    -0.898000000     4.952000000    -0.408000000
O    -1.212000000    -0.933000000     3.732000000
H    -2.132000000    -0.999000000     3.474000000
H    -1.153000000    -0.098000000     4.196000000
O    -1.978000000     7.216000000    -2.289000000
H    -1.247000000     7.357000000    -2.891000000
H    -1.711000000     6.464000000    -1.761000000
O     2.563000000    -2.906000000    -4.587000000
H     1.798000000    -3.478000000    -4.529000000
H     2.846000000    -2.792000000    -3.679000000
O     3.535000000     0.710000000    -5.573000000
H     3.330000000    -0.135000000    -5.972000000
H     4.316000000     1.011000000    -6.037000000
O     5.457000000    -1.047000000    -3.843000000
H     4.921000000    -0.754000000    -4.580000000
H     4.992000000    -1.809000000    -3.497000000
O     3.073000000    -3.446000000    -0.004000000
H     2.171000000    -3.466000000    -0.325000000
H     3.006000000    -3.711000000     0.914000000
O    -0.937000000    -1.091000000    -5.360000000
H    -0.694000000    -0.501000000    -4.646000000
H    -0.362000000    -1.848000000    -5.251000000
O    -0.918000000     1.404000000     4.929000000
H    -1.249000000     2.298000000     5.017000000
H    -0.144000000     1.488000000     4.371000000
O    -0.116000000    -3.636000000    -4.580000000
H    -0.640000000    -3.703000000    -3.781000000
H    -0.728000000    -3.844000000    -5.286000000
O    -0.513000000    -8.865000000    -1.427000000
H    -0.519000000    -7.955000000    -1.723000000
H     0.152000000    -8.889000000    -0.739000000
O    -5.253000000    -0.573000000     0.529000000
H    -4.534000000    -0.952000000     0.023000000
H    -5.975000000    -0.503000000    -0.096000000
O     1.928000000     2.293000000     4.236000000
H     2.191000000     2.469000000     5.139000000
H     2.077000000     3.120000000     3.777000000
O     4.733000000    -1.413000000     0.623000000
H     3.999000000    -1.912000000     0.265000000
H     4.349000000    -0.893000000     1.329000000
O    -2.356000000     4.764000000    -4.351000000
H    -1.856000000     5.411000000    -4.849000000
H    -1.985000000     4.801000000    -3.470000000
O     0.509000000    -7.332000000     1.844000000
H    -0.005000000    -6.926000000     1.146000000
H     1.405000000    -7.035000000     1.685000000
