144
-2824.59273
O    -2.868000000    -7.128000000    -2.692000000
H    -2.619000000    -7.987000000    -2.350000000
H    -2.219000000    -6.527000000    -2.328000000
O    -4.185000000    -2.591000000    -0.957000000
H    -4.792000000    -2.471000000    -0.227000000
H    -3.424000000    -3.021000000    -0.567000000
O    -3.789000000    -5.436000000     0.534000000
H    -4.111000000    -5.221000000     1.410000000
H    -2.932000000    -5.011000000     0.484000000
O     3.647000000    -6.827000000    -1.333000000
H     3.087000000    -6.059000000    -1.448000000
H     4.314000000    -6.740000000    -2.013000000
O     4.932000000     1.450000000    -0.093000000
H     4.343000000     0.908000000     0.432000000
H     4.352000000     2.050000000    -0.561000000
O     2.368000000     2.178000000    -5.191000000
H     3.066000000     2.570000000    -4.666000000
H     2.824000000     1.754000000    -5.917000000
O    -3.390000000     1.005000000    -3.862000000
H    -4.135000000     0.907000000    -4.455000000
H    -2.647000000     0.647000000    -4.349000000
O    -2.647000000     2.708000000     3.333000000
H    -2.460000000     3.642000000     3.429000000
H    -1.785000000     2.293000000     3.310000000
O    -6.417000000     3.256000000    -1.203000000
H    -6.029000000     2.431000000    -0.910000000
H    -5.672000000     3.848000000    -1.304000000
O     3.833000000     5.462000000    -0.875000000
H     4.217000000     5.105000000    -0.074000000
H     4.337000000     6.256000000    -1.050000000
O     2.909000000     2.650000000     2.941000000
H     2.692000000     3.143000000     3.732000000
H     2.710000000     1.740000000     3.163000000
O    -0.601000000     0.705000000     3.009000000
H    -0.454000000     0.827000000     2.071000000
H     0.158000000     0.203000000     3.307000000
O    -5.903000000    -1.802000000     1.246000000
H    -5.674000000    -1.214000000     1.966000000
H    -6.501000000    -2.439000000     1.638000000
O    -4.645000000     1.583000000     1.930000000
H    -4.223000000     1.595000000     1.070000000
H    -4.073000000     2.114000000     2.484000000
O     2.477000000    -4.488000000    -1.089000000
H     1.755000000    -4.285000000    -0.495000000
H     2.347000000    -3.902000000    -1.835000000
O     1.239000000     0.178000000    -3.315000000
H     1.074000000     0.571000000    -2.458000000
H     1.584000000     0.896000000    -3.846000000
O     3.126000000    -6.847000000     1.224000000
H     3.379000000    -6.771000000     0.304000000
H     3.957000000    -6.920000000     1.695000000
O    -0.740000000    -6.504000000     0.058000000
H    -0.306000000    -6.910000000    -0.693000000
H    -0.400000000    -5.609000000     0.076000000
O     1.197000000     5.899000000    -2.297000000
H     1.567000000     6.040000000    -3.169000000
H     1.876000000     5.418000000    -1.824000000
O    -2.577000000    -2.692000000     2.789000000
H    -3.303000000    -2.084000000     2.652000000
H    -2.393000000    -3.045000000     1.919000000
O     4.489000000     4.352000000     1.493000000
H     4.033000000     3.646000000     1.951000000
H     4.305000000     5.134000000     2.014000000
O    -3.944000000     3.979000000    -1.091000000
H    -3.294000000     4.352000000    -0.495000000
H    -3.426000000     3.581000000    -1.791000000
O     3.177000000     2.689000000    -1.976000000
H     3.618000000     3.068000000    -2.737000000
H     2.983000000     3.439000000    -1.414000000
O    -0.124000000     6.106000000     3.027000000
H     0.412000000     6.387000000     2.285000000
H     0.505000000     5.757000000     3.658000000
O     0.194000000     3.711000000    -4.699000000
H     0.482000000     4.621000000    -4.627000000
H     1.000000000     3.215000000    -4.842000000
O    -2.410000000     5.766000000     0.528000000
H    -3.176000000     6.330000000     0.635000000
H    -2.208000000     5.466000000     1.414000000
O    -1.700000000    -4.293000000    -2.213000000
H    -0.881000000    -4.786000000    -2.158000000
H    -1.798000000    -3.895000000    -1.347000000
O     1.453000000    -2.751000000     3.532000000
H     1.022000000    -2.303000000     4.260000000
H     0.748000000    -3.224000000     3.091000000
O    -0.856000000    -2.986000000     4.995000000
H    -1.445000000    -2.857000000     4.252000000
H    -1.413000000    -2.872000000     5.765000000
O    -4.966000000    -1.513000000     3.896000000
H    -4.439000000    -1.865000000     4.613000000
H    -5.252000000    -0.654000000     4.209000000
O    -2.357000000     3.339000000    -3.200000000
H    -1.525000000     3.476000000    -3.652000000
H    -2.652000000     2.478000000    -3.497000000
O    -4.816000000     0.672000000    -1.021000000
H    -4.294000000     0.546000000    -1.813000000
H    -5.167000000    -0.197000000    -0.824000000
O     6.687000000     2.715000000     1.725000000
H     6.023000000     3.378000000     1.914000000
H     6.210000000     2.020000000     1.272000000
O    -0.411000000     7.385000000    -0.888000000
H     0.145000000     6.844000000    -1.448000000
H    -1.137000000     6.810000000    -0.645000000
O    -4.654000000    -3.358000000    -3.556000000
H    -4.615000000    -3.048000000    -2.651000000
H    -3.925000000    -2.916000000    -3.992000000
O     2.291000000    -2.522000000    -2.909000000
H     1.878000000    -1.713000000    -3.209000000
H     3.190000000    -2.467000000    -3.233000000
O     5.372000000    -1.963000000    -3.157000000
H     5.825000000    -1.151000000    -2.928000000
H     5.177000000    -2.374000000    -2.315000000
O     2.397000000    -0.002000000     4.135000000
H     2.512000000    -0.824000000     3.658000000
H     3.135000000     0.026000000     4.745000000
O     6.928000000     0.272000000    -1.858000000
H     6.230000000     0.730000000    -1.389000000
H     7.661000000     0.887000000    -1.857000000
O    -1.205000000    -0.188000000    -4.913000000
H    -0.535000000     0.112000000    -4.298000000
H    -1.476000000    -1.041000000    -4.574000000
O    -7.252000000    -1.183000000    -1.406000000
H    -6.776000000    -1.403000000    -0.605000000
H    -7.908000000    -1.875000000    -1.492000000
O     4.587000000    -2.977000000    -0.782000000
H     4.754000000    -3.098000000     0.153000000
H     3.799000000    -3.493000000    -0.954000000
O    -5.795000000    -5.667000000    -1.295000000
H    -5.080000000    -5.738000000    -0.662000000
H    -5.411000000    -5.201000000    -2.038000000
O    -2.117000000    -2.583000000    -4.168000000
H    -2.112000000    -3.091000000    -3.357000000
H    -1.648000000    -3.132000000    -4.797000000
O    -2.515000000     5.407000000     3.729000000
H    -1.641000000     5.656000000     3.428000000
H    -2.808000000     6.150000000     4.257000000
O     3.860000000    -2.024000000     2.053000000
H     4.560000000    -2.529000000     2.466000000
H     3.063000000    -2.307000000     2.501000000
O    -1.787000000    -6.389000000     2.983000000
H    -1.007000000    -6.116000000     3.466000000
H    -1.472000000    -6.558000000     2.095000000
O     0.980000000    -5.407000000     2.083000000
H     0.788000000    -4.840000000     1.336000000
H     1.717000000    -5.945000000     1.793000000
