144
-2844.18049
O     3.827000000     2.795000000     1.989000000
H     4.460000000     2.643000000     1.287000000
H     3.660000000     3.737000000     1.962000000
O    -1.435000000     4.334000000     0.847000000
H    -2.169000000     4.076000000     1.405000000
H    -1.304000000     5.262000000     1.038000000
O    -2.839000000     0.581000000    -5.811000000
H    -3.363000000     0.526000000    -5.012000000
H    -2.090000000     1.126000000    -5.569000000
O    -2.009000000     1.064000000    -3.353000000
H    -2.175000000     1.557000000    -2.550000000
H    -1.119000000     1.310000000    -3.605000000
O     3.892000000    -1.429000000     1.373000000
H     4.194000000    -0.867000000     2.086000000
H     4.091000000    -0.935000000     0.578000000
O     1.234000000    -5.682000000    -1.663000000
H     2.179000000    -5.632000000    -1.809000000
H     0.853000000    -5.182000000    -2.385000000
O     5.360000000    -2.200000000    -2.026000000
H     5.111000000    -1.332000000    -1.708000000
H     4.803000000    -2.344000000    -2.791000000
O    -0.363000000     6.105000000    -1.437000000
H     0.520000000     6.468000000    -1.512000000
H    -0.606000000     6.254000000    -0.523000000
O    -5.314000000    -3.838000000    -3.652000000
H    -4.757000000    -3.226000000    -3.171000000
H    -5.116000000    -4.693000000    -3.271000000
O    -1.945000000     0.515000000     5.517000000
H    -1.242000000     0.910000000     5.002000000
H    -2.746000000     0.750000000     5.049000000
O    -3.223000000    -3.369000000    -6.590000000
H    -2.465000000    -2.859000000    -6.303000000
H    -3.175000000    -3.353000000    -7.545000000
O     1.517000000    -2.797000000     1.483000000
H     0.872000000    -2.230000000     1.905000000
H     2.284000000    -2.237000000     1.361000000
O     4.393000000     3.082000000    -0.966000000
H     3.450000000     3.245000000    -0.980000000
H     4.695000000     3.345000000    -1.836000000
O     4.651000000     0.563000000    -4.707000000
H     3.718000000     0.357000000    -4.650000000
H     4.756000000     0.955000000    -5.574000000
O     1.805000000    -0.132000000    -4.775000000
H     1.210000000    -0.716000000    -4.305000000
H     1.368000000     0.720000000    -4.757000000
O     2.007000000     4.505000000    -3.662000000
H     2.876000000     4.144000000    -3.837000000
H     2.152000000     5.153000000    -2.972000000
O     0.386000000    -4.345000000    -4.368000000
H     0.198000000    -3.512000000    -3.935000000
H    -0.475000000    -4.726000000    -4.538000000
O    -4.735000000    -2.050000000     1.646000000
H    -3.989000000    -2.650000000     1.630000000
H    -5.415000000    -2.526000000     2.122000000
O     5.339000000     0.452000000     2.803000000
H     4.517000000     0.892000000     3.023000000
H     6.015000000     0.988000000     3.218000000
O     4.989000000     0.326000000    -0.974000000
H     5.542000000     0.650000000    -1.686000000
H     4.531000000     1.103000000    -0.654000000
O    -5.680000000     0.489000000     1.508000000
H    -5.668000000     0.686000000     0.572000000
H    -5.150000000    -0.304000000     1.593000000
O    -3.176000000     4.022000000     2.806000000
H    -3.848000000     4.563000000     3.220000000
H    -2.769000000     3.548000000     3.531000000
O    -0.143000000    -0.755000000    -8.352000000
H    -0.490000000    -0.964000000    -7.484000000
H     0.083000000    -1.605000000    -8.730000000
O    -2.795000000    -4.587000000     1.714000000
H    -1.846000000    -4.658000000     1.820000000
H    -2.951000000    -4.818000000     0.798000000
O    -2.872000000    -1.892000000     5.251000000
H    -3.819000000    -1.779000000     5.336000000
H    -2.514000000    -1.012000000     5.371000000
O     1.634000000     3.929000000    -0.057000000
H     0.692000000     3.767000000    -0.104000000
H     1.738000000     4.526000000     0.684000000
O    -3.781000000    -2.264000000    -1.852000000
H    -3.912000000    -2.004000000    -0.941000000
H    -2.831000000    -2.346000000    -1.943000000
O    -3.934000000     1.205000000     3.806000000
H    -4.450000000     0.981000000     3.032000000
H    -4.566000000     1.589000000     4.413000000
O     2.509000000     6.086000000    -1.646000000
H     2.193000000     5.400000000    -1.057000000
H     3.377000000     6.309000000    -1.310000000
O     2.575000000     2.091000000     4.385000000
H     2.609000000     2.422000000     3.488000000
H     2.104000000     1.261000000     4.316000000
O     3.277000000    -3.059000000    -3.673000000
H     2.564000000    -2.421000000    -3.638000000
H     3.235000000    -3.417000000    -4.560000000
O     4.588000000     3.691000000    -3.632000000
H     5.531000000     3.812000000    -3.737000000
H     4.377000000     2.951000000    -4.202000000
O     2.439000000     2.443000000     7.059000000
H     2.409000000     2.252000000     6.122000000
H     1.520000000     2.476000000     7.326000000
O     1.477000000    -0.781000000     4.103000000
H     2.027000000    -1.420000000     4.555000000
H     0.630000000    -1.218000000     4.010000000
O    -1.455000000     2.428000000    -1.037000000
H    -1.251000000     3.057000000    -0.344000000
H    -1.430000000     1.576000000    -0.602000000
O    -0.434000000     2.972000000     6.997000000
H    -0.539000000     3.094000000     6.053000000
H    -1.326000000     3.006000000     7.343000000
O     0.231000000     2.472000000    -4.484000000
H     0.105000000     2.894000000    -5.334000000
H     0.648000000     3.143000000    -3.943000000
O     2.569000000    -0.825000000    -7.206000000
H     1.757000000    -0.390000000    -7.466000000
H     2.443000000    -1.033000000    -6.280000000
O    -1.938000000    -4.958000000    -1.110000000
H    -1.730000000    -4.076000000    -1.418000000
H    -1.087000000    -5.387000000    -1.020000000
O    -5.262000000    -0.742000000    -3.455000000
H    -4.775000000    -1.272000000    -2.824000000
H    -5.565000000    -1.369000000    -4.111000000
O    -0.538000000    -2.617000000     3.861000000
H    -1.448000000    -2.646000000     4.155000000
H    -0.393000000    -3.467000000     3.445000000
O     2.379000000     5.567000000     1.845000000
H     2.341000000     5.752000000     2.783000000
H     2.311000000     6.426000000     1.428000000
O    -0.548000000     3.800000000     4.302000000
H    -0.451000000     4.718000000     4.557000000
H    -0.117000000     3.741000000     3.450000000
O     4.612000000     3.588000000     5.712000000
H     4.107000000     3.037000000     5.114000000
H     4.170000000     3.494000000     6.555000000
O    -1.095000000    -1.535000000    -6.022000000
H    -0.723000000    -1.677000000    -5.152000000
H    -1.871000000    -0.997000000    -5.866000000
O    -0.276000000    -4.836000000     2.412000000
H     0.495000000    -4.324000000     2.165000000
H    -0.125000000    -5.698000000     2.026000000
O     2.335000000    -4.498000000    -6.240000000
H     1.514000000    -4.550000000    -5.750000000
H     2.065000000    -4.327000000    -7.142000000
O    -2.296000000    -4.912000000    -4.365000000
H    -2.745000000    -4.403000000    -5.039000000
H    -2.648000000    -4.579000000    -3.539000000
