144
-2819.39052
O     1.385000000     2.960000000     3.300000000
H     0.459000000     3.036000000     3.068000000
H     1.601000000     2.044000000     3.127000000
O    -0.826000000     1.934000000     6.296000000
H     0.070000000     1.665000000     6.092000000
H    -1.317000000     1.114000000     6.346000000
O    -2.737000000     1.227000000    -3.743000000
H    -2.588000000     1.653000000    -4.587000000
H    -2.848000000     1.950000000    -3.126000000
O     4.409000000    -0.777000000     0.998000000
H     3.719000000    -1.279000000     1.434000000
H     4.434000000    -1.128000000     0.108000000
O     2.623000000    -5.796000000    -0.062000000
H     2.368000000    -4.978000000    -0.488000000
H     2.836000000    -5.542000000     0.836000000
O     0.840000000    -0.567000000     7.138000000
H     0.373000000    -1.246000000     7.625000000
H     0.797000000    -0.852000000     6.226000000
O    -1.478000000     3.313000000     4.189000000
H    -0.996000000     2.881000000     4.895000000
H    -2.049000000     2.630000000     3.836000000
O     5.752000000    -6.052000000    -0.410000000
H     5.847000000    -5.264000000     0.125000000
H     5.559000000    -6.747000000     0.218000000
O     3.205000000    -2.487000000     2.598000000
H     3.536000000    -3.224000000     3.112000000
H     2.621000000    -2.888000000     1.954000000
O    -2.302000000    -2.955000000    -5.239000000
H    -2.635000000    -2.316000000    -4.609000000
H    -1.429000000    -3.178000000    -4.915000000
O    -2.102000000     3.961000000    -2.943000000
H    -1.322000000     4.132000000    -2.415000000
H    -1.965000000     4.466000000    -3.744000000
O    -0.031000000    -3.330000000    -3.683000000
H     0.560000000    -3.171000000    -2.947000000
H     0.188000000    -4.214000000    -3.978000000
O     4.936000000     0.761000000     4.267000000
H     4.198000000     0.675000000     3.663000000
H     4.535000000     0.773000000     5.136000000
O     2.465000000    -2.283000000    -5.905000000
H     2.641000000    -2.985000000    -5.278000000
H     2.057000000    -1.592000000    -5.382000000
O     2.312000000    -0.019000000     3.571000000
H     1.419000000    -0.312000000     3.388000000
H     2.858000000    -0.782000000     3.382000000
O    -3.079000000     0.988000000     3.496000000
H    -3.763000000     1.302000000     2.904000000
H    -3.131000000     0.034000000     3.436000000
O     6.771000000    -3.208000000     1.284000000
H     6.020000000    -3.068000000     0.708000000
H     6.688000000    -2.530000000     1.955000000
O    -1.597000000    -3.332000000     4.341000000
H    -1.441000000    -4.023000000     4.984000000
H    -1.695000000    -3.797000000     3.510000000
O    -2.907000000    -1.517000000    -0.231000000
H    -1.958000000    -1.600000000    -0.141000000
H    -3.257000000    -2.306000000     0.182000000
O     4.637000000    -2.751000000    -0.949000000
H     3.712000000    -2.888000000    -1.156000000
H     5.028000000    -2.466000000    -1.775000000
O     4.983000000     1.833000000    -1.219000000
H     5.247000000     2.148000000    -0.355000000
H     4.057000000     1.613000000    -1.121000000
O     1.610000000    -5.787000000     3.775000000
H     1.738000000    -5.741000000     4.722000000
H     2.423000000    -5.442000000     3.406000000
O     4.478000000    -0.163000000    -5.107000000
H     4.477000000    -0.719000000    -5.886000000
H     3.570000000     0.129000000    -5.020000000
O    -1.006000000    -0.526000000    -6.776000000
H    -1.175000000    -1.353000000    -6.325000000
H    -0.985000000    -0.759000000    -7.704000000
O    -5.440000000     5.419000000    -2.541000000
H    -6.119000000     4.746000000    -2.583000000
H    -4.617000000     4.931000000    -2.561000000
O     4.114000000    -5.062000000     2.509000000
H     4.818000000    -4.420000000     2.597000000
H     4.563000000    -5.885000000     2.315000000
O    -3.005000000    -4.302000000     1.304000000
H    -3.398000000    -5.087000000     0.924000000
H    -2.065000000    -4.478000000     1.299000000
O     1.355000000     0.920000000    -6.233000000
H     0.944000000     1.540000000    -5.630000000
H     0.657000000     0.302000000    -6.453000000
O    -3.834000000    -1.675000000     3.568000000
H    -3.181000000    -2.374000000     3.544000000
H    -4.646000000    -2.114000000     3.820000000
O    -4.812000000     0.318000000    -0.359000000
H    -4.053000000    -0.211000000    -0.113000000
H    -5.048000000     0.785000000     0.443000000
O    -3.317000000    -1.366000000    -3.257000000
H    -3.156000000    -1.461000000    -2.319000000
H    -3.211000000    -0.430000000    -3.425000000
O     2.198000000     4.138000000     0.219000000
H     2.586000000     4.365000000     1.065000000
H     2.288000000     3.187000000     0.162000000
O     5.876000000    -1.774000000    -3.476000000
H     5.695000000    -2.612000000    -3.902000000
H     5.413000000    -1.129000000    -4.011000000
O    -0.637000000    -6.351000000    -1.153000000
H    -0.460000000    -5.845000000    -0.359000000
H    -0.819000000    -7.236000000    -0.837000000
O    -3.591000000     5.167000000     2.821000000
H    -2.718000000     4.926000000     3.132000000
H    -3.608000000     4.880000000     1.908000000
O     0.110000000     2.424000000    -4.443000000
H     0.356000000     3.188000000    -3.922000000
H    -0.845000000     2.463000000    -4.489000000
O     5.861000000    -5.065000000    -3.071000000
H     5.006000000    -4.667000000    -2.905000000
H     6.197000000    -5.280000000    -2.201000000
O    -0.777000000    -0.728000000     4.930000000
H    -1.676000000    -0.412000000     5.019000000
H    -0.869000000    -1.656000000     4.712000000
O     0.510000000     4.790000000    -1.951000000
H     0.974000000     4.711000000    -1.118000000
H    -0.071000000     5.542000000    -1.832000000
O     2.800000000     5.313000000    -4.456000000
H     2.993000000     4.782000000    -3.684000000
H     2.773000000     6.211000000    -4.128000000
O     1.233000000    -5.841000000    -3.253000000
H     0.531000000    -6.041000000    -2.633000000
H     1.790000000    -6.619000000    -3.243000000
O     2.634000000     1.340000000     0.373000000
H     1.764000000     0.966000000     0.511000000
H     3.238000000     0.622000000     0.564000000
O    -1.512000000     6.613000000    -1.173000000
H    -2.211000000     7.241000000    -1.355000000
H    -1.346000000     6.704000000    -0.235000000
O    -0.179000000    -4.803000000     1.306000000
H     0.334000000    -5.368000000     1.883000000
H     0.419000000    -4.092000000     1.073000000
O    -3.635000000     5.026000000     0.273000000
H    -3.223000000     5.079000000    -0.589000000
H    -4.383000000     5.620000000     0.218000000
O     3.370000000    -3.808000000    -3.579000000
H     3.144000000    -4.728000000    -3.713000000
H     2.828000000    -3.534000000    -2.839000000
O    -5.021000000     2.007000000     1.834000000
H    -5.932000000     1.864000000     2.092000000
H    -4.900000000     2.954000000     1.897000000
O    -0.317000000     7.320000000     1.522000000
H     0.541000000     7.072000000     1.179000000
H    -0.257000000     7.151000000     2.462000000
