144
-2812.66776
O    -2.102000000     0.933000000     5.641000000
H    -1.444000000     0.238000000     5.620000000
H    -2.918000000     0.483000000     5.856000000
O    -0.330000000     3.319000000     6.200000000
H    -0.663000000     3.536000000     7.070000000
H    -0.709000000     2.461000000     6.006000000
O    -4.275000000     2.463000000     1.186000000
H    -3.776000000     3.247000000     0.955000000
H    -4.861000000     2.751000000     1.886000000
O     5.238000000     2.461000000     0.672000000
H     4.825000000     2.227000000    -0.159000000
H     4.510000000     2.544000000     1.287000000
O     2.854000000    -5.246000000    -1.599000000
H     2.014000000    -4.912000000    -1.283000000
H     3.317000000    -4.470000000    -1.913000000
O     2.870000000    -6.137000000     2.116000000
H     2.113000000    -6.327000000     2.671000000
H     3.566000000    -6.696000000     2.460000000
O     2.606000000    -3.199000000     1.407000000
H     2.744000000    -4.130000000     1.581000000
H     2.113000000    -3.179000000     0.587000000
O    -0.077000000     4.024000000    -4.128000000
H    -0.643000000     4.075000000    -3.358000000
H    -0.677000000     3.859000000    -4.855000000
O    -2.002000000    -3.133000000    -3.486000000
H    -2.183000000    -4.033000000    -3.755000000
H    -1.264000000    -3.208000000    -2.881000000
O     1.840000000     5.772000000     2.380000000
H     1.076000000     5.540000000     2.906000000
H     2.472000000     6.115000000     3.012000000
O    -1.154000000    -2.272000000    -6.079000000
H    -1.683000000    -2.693000000    -6.756000000
H    -1.552000000    -2.554000000    -5.255000000
O     0.447000000    -0.324000000     4.886000000
H    -0.086000000    -0.839000000     4.280000000
H     0.711000000    -0.948000000     5.563000000
O     4.324000000    -1.397000000     0.138000000
H     4.340000000    -1.740000000    -0.756000000
H     3.808000000    -2.036000000     0.630000000
O     1.568000000    -1.437000000    -6.547000000
H     0.681000000    -1.780000000    -6.441000000
H     1.978000000    -1.564000000    -5.692000000
O     2.554000000     3.768000000    -4.050000000
H     2.847000000     2.857000000    -4.031000000
H     1.599000000     3.712000000    -4.065000000
O    -0.853000000    -3.338000000     5.426000000
H    -1.171000000    -2.569000000     4.953000000
H    -0.201000000    -2.992000000     6.035000000
O    -4.835000000     0.176000000     2.563000000
H    -4.552000000     0.989000000     2.147000000
H    -4.202000000    -0.478000000     2.266000000
O     5.472000000    -5.651000000     0.820000000
H     4.561000000    -5.602000000     0.528000000
H     5.986000000    -5.554000000     0.018000000
O     4.607000000    -2.856000000    -2.063000000
H     5.033000000    -3.192000000    -2.852000000
H     5.066000000    -3.287000000    -1.341000000
O     3.020000000     4.710000000    -1.388000000
H     2.734000000     4.187000000    -2.137000000
H     3.733000000     4.202000000    -1.000000000
O     2.521000000    -4.078000000     5.076000000
H     2.512000000    -3.135000000     4.915000000
H     3.411000000    -4.351000000     4.852000000
O    -2.952000000     7.631000000     1.953000000
H    -3.005000000     6.687000000     1.808000000
H    -2.047000000     7.782000000     2.224000000
O    -2.935000000     4.407000000    -3.165000000
H    -3.606000000     5.044000000    -3.409000000
H    -3.158000000     3.621000000    -3.663000000
O     2.817000000     0.917000000    -3.585000000
H     3.262000000     0.616000000    -2.793000000
H     2.218000000     0.205000000    -3.809000000
O    -3.413000000    -0.715000000    -3.980000000
H    -3.480000000    -0.280000000    -3.129000000
H    -2.829000000    -1.457000000    -3.825000000
O    -3.502000000    -1.949000000     1.360000000
H    -3.342000000    -2.893000000     1.347000000
H    -2.891000000    -1.593000000     0.715000000
O    -0.922000000    -5.221000000    -6.399000000
H    -0.654000000    -4.652000000    -7.121000000
H    -0.197000000    -5.176000000    -5.776000000
O    -2.520000000     1.787000000    -4.625000000
H    -1.599000000     1.790000000    -4.888000000
H    -2.729000000     0.863000000    -4.493000000
O     3.470000000    -1.224000000     3.779000000
H     4.281000000    -1.528000000     4.186000000
H     3.349000000    -1.802000000     3.025000000
O    -0.266000000    -7.244000000    -1.334000000
H    -0.467000000    -8.115000000    -0.991000000
H    -0.384000000    -6.659000000    -0.586000000
O    -2.985000000     0.030000000    -1.038000000
H    -2.030000000     0.095000000    -1.056000000
H    -3.286000000     0.939000000    -1.035000000
O    -0.432000000     5.727000000     3.912000000
H    -0.456000000     5.737000000     4.869000000
H    -0.628000000     6.629000000     3.658000000
O     2.151000000    -1.697000000    -3.990000000
H     1.535000000    -2.154000000    -3.418000000
H     2.980000000    -2.161000000    -3.869000000
O    -2.798000000    -4.701000000     1.399000000
H    -1.982000000    -4.919000000     0.950000000
H    -2.864000000    -5.346000000     2.104000000
O    -3.005000000     4.824000000     2.424000000
H    -3.761000000     4.917000000     3.004000000
H    -2.288000000     4.568000000     3.005000000
O     0.478000000    -5.490000000     3.818000000
H    -0.378000000    -5.227000000     4.155000000
H     1.106000000    -5.053000000     4.393000000
O     2.426000000    -7.861000000    -1.005000000
H     2.643000000    -6.930000000    -1.057000000
H     1.469000000    -7.885000000    -1.017000000
O    -1.918000000    -1.340000000     3.739000000
H    -2.514000000    -0.702000000     4.132000000
H    -2.441000000    -1.773000000     3.064000000
O     1.662000000     7.131000000    -0.195000000
H     2.078000000     6.494000000    -0.775000000
H     1.625000000     6.693000000     0.655000000
O     0.237000000     1.158000000    -6.296000000
H     0.781000000     1.913000000    -6.518000000
H     0.799000000     0.401000000    -6.460000000
O    -0.824000000     6.824000000    -1.381000000
H     0.046000000     6.943000000    -1.000000000
H    -1.306000000     7.610000000    -1.126000000
O     2.225000000     3.814000000     5.515000000
H     2.367000000     2.984000000     5.059000000
H     1.274000000     3.888000000     5.587000000
O     2.517000000     1.335000000     4.393000000
H     2.851000000     0.656000000     3.806000000
H     1.736000000     0.948000000     4.787000000
O     3.116000000     3.467000000     2.102000000
H     2.485000000     2.751000000     2.174000000
H     2.584000000     4.261000000     2.157000000
O    -3.582000000     4.526000000    -0.697000000
H    -2.882000000     4.640000000    -0.054000000
H    -3.140000000     4.579000000    -1.544000000
O     1.826000000    -7.244000000    -5.088000000
H     1.339000000    -6.695000000    -4.473000000
H     2.215000000    -6.625000000    -5.706000000
O    -0.296000000    -5.716000000     0.994000000
H    -0.349000000    -5.704000000     1.950000000
H     0.316000000    -5.012000000     0.779000000
O     0.156000000    -5.339000000    -3.643000000
H     0.069000000    -5.892000000    -2.867000000
H     0.360000000    -4.470000000    -3.297000000
