144
-2847.46094
O     1.660000000     4.825000000    -0.741000000
H     1.120000000     5.277000000    -1.390000000
H     2.303000000     4.341000000    -1.259000000
O    -1.321000000    -2.041000000    -3.175000000
H    -1.824000000    -1.931000000    -2.368000000
H    -1.304000000    -2.987000000    -3.320000000
O    -5.423000000    -3.478000000     0.372000000
H    -6.321000000    -3.550000000     0.050000000
H    -5.516000000    -3.345000000     1.315000000
O     5.404000000     1.657000000    -5.812000000
H     5.074000000     1.036000000    -5.164000000
H     4.885000000     2.449000000    -5.671000000
O     5.660000000     2.251000000    -1.684000000
H     4.916000000     2.639000000    -2.145000000
H     6.071000000     2.986000000    -1.230000000
O    -2.613000000     1.265000000     4.913000000
H    -2.302000000     0.378000000     5.096000000
H    -3.216000000     1.461000000     5.630000000
O    -2.428000000     3.849000000     0.777000000
H    -2.858000000     3.338000000     1.463000000
H    -2.203000000     3.206000000     0.105000000
O    -0.029000000     4.160000000    -3.044000000
H     0.084000000     3.225000000    -2.873000000
H    -0.855000000     4.218000000    -3.524000000
O     3.576000000    -2.144000000    -7.382000000
H     4.174000000    -2.887000000    -7.462000000
H     3.477000000    -1.819000000    -8.277000000
O    -5.875000000     0.012000000    -1.914000000
H    -5.049000000    -0.042000000    -1.433000000
H    -6.354000000     0.722000000    -1.488000000
O     7.280000000    -0.540000000    -3.965000000
H     6.325000000    -0.510000000    -3.918000000
H     7.465000000    -1.014000000    -4.776000000
O    -2.105000000     3.291000000    -4.608000000
H    -1.904000000     2.577000000    -5.212000000
H    -2.667000000     2.892000000    -3.943000000
O    -6.305000000    -1.371000000     2.860000000
H    -6.897000000    -1.559000000     2.131000000
H    -6.755000000    -0.694000000     3.366000000
O    -2.680000000     2.261000000    -1.863000000
H    -1.989000000     1.841000000    -2.376000000
H    -3.004000000     1.570000000    -1.286000000
O     4.679000000     0.263000000    -3.527000000
H     4.884000000     0.784000000    -2.750000000
H     3.738000000     0.101000000    -3.465000000
O    -0.374000000    -6.165000000    -3.822000000
H    -0.496000000    -5.626000000    -3.040000000
H     0.386000000    -6.711000000    -3.620000000
O     0.969000000    -3.290000000    -7.101000000
H     1.445000000    -2.598000000    -6.642000000
H     1.517000000    -4.068000000    -6.996000000
O     0.565000000    -1.427000000     5.866000000
H     0.864000000    -0.547000000     6.095000000
H     1.351000000    -1.873000000     5.552000000
O     0.581000000     5.038000000    -6.246000000
H     0.787000000     4.304000000    -5.667000000
H     0.410000000     5.770000000    -5.654000000
O    -4.200000000    -2.119000000     7.058000000
H    -4.496000000    -2.997000000     6.817000000
H    -3.358000000    -2.020000000     6.614000000
O    -1.302000000    -5.088000000     5.375000000
H    -1.180000000    -5.175000000     4.429000000
H    -1.908000000    -5.792000000     5.604000000
O    -1.433000000     0.453000000    -3.605000000
H    -1.391000000     0.586000000    -4.552000000
H    -0.965000000    -0.369000000    -3.458000000
O     1.550000000     2.346000000    -5.872000000
H     1.256000000     2.132000000    -4.987000000
H     1.977000000     1.548000000    -6.182000000
O     2.985000000     5.474000000     1.641000000
H     3.658000000     4.797000000     1.712000000
H     2.575000000     5.316000000     0.790000000
O     4.362000000    -4.942000000    -0.427000000
H     5.112000000    -4.893000000     0.165000000
H     4.518000000    -4.248000000    -1.068000000
O     1.420000000     1.344000000     6.345000000
H     0.811000000     2.034000000     6.085000000
H     1.324000000     1.285000000     7.296000000
O     3.347000000     3.301000000    -2.725000000
H     3.581000000     3.363000000    -3.651000000
H     2.552000000     2.768000000    -2.714000000
O     2.587000000     0.556000000     1.700000000
H     2.906000000    -0.340000000     1.597000000
H     1.832000000     0.611000000     1.115000000
O    -4.636000000     5.270000000    -0.507000000
H    -4.655000000     5.008000000    -1.427000000
H    -3.828000000     4.887000000    -0.165000000
O    -3.010000000    -3.797000000    -1.282000000
H    -3.573000000    -3.581000000    -0.539000000
H    -3.618000000    -4.005000000    -1.991000000
O    -0.457000000     2.974000000     5.498000000
H    -1.202000000     2.429000000     5.244000000
H    -0.067000000     3.248000000     4.668000000
O     2.161000000    -5.991000000     4.087000000
H     3.106000000    -5.838000000     4.074000000
H     1.781000000    -5.173000000     3.768000000
O    -0.415000000    -4.668000000    -1.541000000
H    -0.095000000    -5.132000000    -0.768000000
H    -1.320000000    -4.441000000    -1.327000000
O    -1.411000000    -5.299000000     2.584000000
H    -1.998000000    -5.072000000     1.863000000
H    -0.533000000    -5.241000000     2.206000000
O    -3.960000000     0.391000000     0.105000000
H    -3.968000000     1.081000000     0.769000000
H    -3.408000000    -0.295000000     0.479000000
O     3.909000000     3.803000000    -5.332000000
H     4.044000000     4.621000000    -4.853000000
H     3.075000000     3.926000000    -5.784000000
O     3.627000000    -1.880000000    -1.496000000
H     3.730000000    -1.076000000    -2.006000000
H     3.066000000    -2.436000000    -2.036000000
O    -2.007000000    -2.306000000     5.713000000
H    -1.901000000    -3.140000000     5.255000000
H    -1.112000000    -2.016000000     5.891000000
O    -0.154000000     5.369000000     1.120000000
H     0.527000000     5.078000000     0.513000000
H    -0.847000000     4.714000000     1.034000000
O     2.183000000    -4.046000000    -2.661000000
H     1.322000000    -3.799000000    -2.322000000
H     2.194000000    -5.002000000    -2.611000000
O     1.952000000    -3.248000000     3.061000000
H     2.413000000    -2.858000000     2.319000000
H     2.431000000    -2.939000000     3.830000000
O     3.077000000     1.843000000     4.243000000
H     2.512000000     1.334000000     4.824000000
H     2.907000000     1.488000000     3.371000000
O     0.640000000    -5.535000000     0.829000000
H     1.387000000    -4.962000000     1.007000000
H     1.034000000    -6.362000000     0.551000000
O    -1.176000000     0.784000000    -6.367000000
H    -0.358000000     1.073000000    -6.771000000
H    -1.240000000    -0.144000000    -6.593000000
O     3.715000000    -1.870000000     1.239000000
H     3.924000000    -1.870000000     0.305000000
H     4.328000000    -2.497000000     1.622000000
O     0.726000000     4.137000000     3.469000000
H     0.384000000     4.604000000     2.707000000
H     1.660000000     4.343000000     3.477000000
O     2.160000000    -0.311000000    -6.032000000
H     2.828000000    -0.816000000    -6.496000000
H     2.230000000    -0.600000000    -5.123000000
O    -3.784000000     2.161000000     2.244000000
H    -3.214000000     1.755000000     2.897000000
H    -4.468000000     2.591000000     2.757000000
