144
-2827.47172
O    -1.831000000     1.678000000    -4.285000000
H    -2.729000000     1.835000000    -3.991000000
H    -1.606000000     2.457000000    -4.793000000
O     0.211000000    -1.672000000    -2.608000000
H    -0.004000000    -1.604000000    -1.677000000
H    -0.628000000    -1.568000000    -3.056000000
O    -0.458000000     6.505000000    -1.280000000
H    -0.651000000     7.296000000    -1.784000000
H    -1.208000000     5.931000000    -1.438000000
O     5.585000000    -3.926000000    -1.978000000
H     5.589000000    -4.046000000    -1.028000000
H     6.010000000    -3.080000000    -2.115000000
O    -2.620000000     0.309000000     4.952000000
H    -3.116000000     0.493000000     4.154000000
H    -1.873000000     0.906000000     4.913000000
O    -2.120000000    -4.224000000     1.473000000
H    -1.877000000    -5.030000000     1.929000000
H    -1.803000000    -4.350000000     0.579000000
O     0.652000000     6.443000000     1.218000000
H     1.518000000     6.163000000     1.515000000
H     0.744000000     6.543000000     0.271000000
O    -3.045000000     4.730000000    -3.719000000
H    -2.749000000     5.006000000    -2.852000000
H    -3.838000000     5.243000000    -3.876000000
O     8.891000000    -0.118000000     1.446000000
H     7.946000000    -0.171000000     1.303000000
H     9.142000000    -1.002000000     1.713000000
O    -4.756000000     1.674000000    -3.304000000
H    -4.745000000     0.762000000    -3.013000000
H    -4.935000000     2.176000000    -2.509000000
O    -2.864000000     4.145000000     1.269000000
H    -3.298000000     4.075000000     2.119000000
H    -1.982000000     3.805000000     1.421000000
O     0.214000000     0.850000000     3.427000000
H     1.119000000     1.009000000     3.159000000
H     0.188000000    -0.082000000     3.643000000
O    -2.987000000     5.353000000    -1.010000000
H    -2.769000000     5.045000000    -0.130000000
H    -3.928000000     5.197000000    -1.093000000
O     1.630000000    -3.847000000    -0.476000000
H     2.028000000    -3.517000000    -1.281000000
H     1.718000000    -3.126000000     0.148000000
O     4.050000000     3.664000000    -1.694000000
H     4.780000000     4.128000000    -2.105000000
H     3.268000000     4.072000000    -2.064000000
O     1.809000000    -3.551000000     3.220000000
H     2.498000000    -3.299000000     2.605000000
H     1.204000000    -2.809000000     3.220000000
O    -0.565000000     2.967000000     1.853000000
H    -0.064000000     2.519000000     1.171000000
H    -0.307000000     2.532000000     2.665000000
O    -5.501000000     5.259000000    -0.038000000
H    -6.286000000     5.800000000    -0.122000000
H    -5.180000000     5.439000000     0.846000000
O     2.677000000    -2.528000000    -3.084000000
H     1.739000000    -2.339000000    -3.047000000
H     3.091000000    -1.773000000    -2.667000000
O     2.914000000    -5.960000000     0.610000000
H     2.390000000    -5.953000000     1.411000000
H     2.397000000    -5.456000000    -0.019000000
O    -4.045000000    -5.629000000    -1.289000000
H    -3.283000000    -5.725000000    -0.717000000
H    -3.682000000    -5.330000000    -2.123000000
O     2.950000000     5.268000000     0.555000000
H     3.358000000     6.071000000     0.230000000
H     3.012000000     4.655000000    -0.177000000
O    -2.025000000    -1.077000000    -4.113000000
H    -2.032000000    -0.124000000    -4.202000000
H    -2.915000000    -1.299000000    -3.840000000
O    -4.072000000    -2.393000000     1.671000000
H    -4.738000000    -2.904000000     2.130000000
H    -3.363000000    -3.015000000     1.506000000
O     6.406000000    -0.382000000     0.842000000
H     6.501000000    -0.914000000     0.053000000
H     5.469000000    -0.188000000     0.889000000
O     1.568000000     4.875000000    -2.369000000
H     1.025000000     5.453000000    -1.832000000
H     1.235000000     4.991000000    -3.258000000
O     6.964000000    -3.499000000     2.418000000
H     6.089000000    -3.373000000     2.050000000
H     7.468000000    -2.752000000     2.097000000
O     4.139000000    -0.371000000    -2.181000000
H     4.105000000     0.267000000    -1.468000000
H     5.058000000    -0.637000000    -2.221000000
O     4.276000000     0.436000000     5.540000000
H     3.586000000     0.985000000     5.166000000
H     4.415000000    -0.251000000     4.889000000
O     2.853000000     1.814000000     3.431000000
H     2.954000000     1.600000000     2.503000000
H     2.766000000     2.767000000     3.449000000
O    -4.999000000    -1.481000000    -0.857000000
H    -5.757000000    -1.857000000    -0.410000000
H    -4.317000000    -1.449000000    -0.187000000
O     1.527000000    -6.395000000     3.632000000
H     0.573000000    -6.450000000     3.582000000
H     1.718000000    -5.460000000     3.567000000
O    -4.513000000    -1.528000000    -3.407000000
H    -5.080000000    -2.174000000    -3.828000000
H    -4.635000000    -1.677000000    -2.469000000
O    -6.963000000     0.601000000     1.107000000
H    -6.908000000    -0.240000000     0.654000000
H    -6.259000000     0.571000000     1.754000000
O     4.931000000    -1.645000000     3.973000000
H     5.082000000    -2.558000000     4.216000000
H     4.694000000    -1.679000000     3.047000000
O    -6.386000000     2.634000000    -1.124000000
H    -5.898000000     3.373000000    -0.761000000
H    -6.497000000     2.034000000    -0.386000000
O    -1.078000000    -4.872000000    -0.947000000
H    -0.162000000    -4.600000000    -1.010000000
H    -1.441000000    -4.693000000    -1.814000000
O     3.086000000     1.725000000    -4.752000000
H     3.672000000     1.064000000    -4.385000000
H     2.220000000     1.487000000    -4.422000000
O     4.951000000    -3.711000000     0.746000000
H     4.375000000    -2.947000000     0.763000000
H     4.365000000    -4.450000000     0.585000000
O    -4.770000000     1.170000000     2.735000000
H    -5.337000000     0.775000000     3.397000000
H    -4.779000000     2.105000000     2.938000000
O     2.668000000     4.578000000     3.104000000
H     2.691000000     4.708000000     2.156000000
H     3.390000000     5.113000000     3.436000000
O     7.130000000    -1.321000000    -1.917000000
H     7.547000000    -0.469000000    -1.795000000
H     7.621000000    -1.729000000    -2.630000000
O     4.299000000     2.260000000     0.805000000
H     4.297000000     1.315000000     0.652000000
H     4.357000000     2.644000000    -0.070000000
O    -4.144000000     3.665000000     3.794000000
H    -4.641000000     4.468000000     3.948000000
H    -4.304000000     3.130000000     4.571000000
O     0.826000000     0.640000000    -3.794000000
H     0.823000000    -0.224000000    -3.381000000
H    -0.060000000     0.975000000    -3.653000000
O     2.775000000    -4.623000000     5.774000000
H     2.232000000    -3.856000000     5.593000000
H     3.594000000    -4.452000000     5.309000000
O    -0.291000000    -2.090000000     4.509000000
H    -1.161000000    -1.723000000     4.349000000
H    -0.431000000    -2.750000000     5.188000000
O     6.788000000     2.631000000     2.458000000
H     5.871000000     2.815000000     2.257000000
H     6.864000000     1.680000000     2.382000000
