144
-2794.66132
O     0.497000000     1.523000000    -3.035000000
H     1.180000000     2.134000000    -3.312000000
H     0.514000000     1.562000000    -2.079000000
O    -1.996000000    -3.998000000    -3.199000000
H    -1.637000000    -4.266000000    -2.353000000
H    -2.272000000    -3.091000000    -3.066000000
O    -4.852000000    -3.137000000     3.116000000
H    -5.068000000    -2.395000000     3.681000000
H    -5.045000000    -2.829000000     2.231000000
O     4.620000000     3.887000000    -0.884000000
H     4.327000000     4.125000000    -0.005000000
H     5.301000000     3.229000000    -0.739000000
O    -3.873000000    -0.179000000    -5.074000000
H    -4.720000000    -0.144000000    -5.520000000
H    -3.940000000     0.479000000    -4.382000000
O    -3.235000000     4.881000000    -4.029000000
H    -2.662000000     4.121000000    -4.135000000
H    -3.884000000     4.603000000    -3.384000000
O     6.727000000     2.010000000    -0.387000000
H     6.554000000     1.173000000    -0.819000000
H     7.627000000     2.223000000    -0.631000000
O     6.417000000    -3.334000000    -1.554000000
H     5.749000000    -3.731000000    -2.114000000
H     6.130000000    -3.533000000    -0.663000000
O     5.005000000    -2.569000000     2.127000000
H     4.379000000    -2.136000000     1.547000000
H     4.870000000    -2.153000000     2.979000000
O    -4.207000000     3.790000000     1.237000000
H    -3.276000000     3.851000000     1.452000000
H    -4.650000000     3.810000000     2.085000000
O     4.314000000    -0.902000000     4.414000000
H     4.418000000    -0.884000000     5.365000000
H     3.383000000    -0.731000000     4.271000000
O     1.716000000    -1.010000000     3.525000000
H     0.888000000    -1.394000000     3.815000000
H     1.821000000    -1.318000000     2.625000000
O    -4.698000000     3.548000000    -1.338000000
H    -4.975000000     4.406000000    -1.659000000
H    -4.634000000     3.657000000    -0.389000000
O     2.445000000    -7.458000000    -2.101000000
H     2.201000000    -6.698000000    -1.571000000
H     3.313000000    -7.704000000    -1.780000000
O    -1.272000000    -2.366000000     4.524000000
H    -0.744000000    -2.318000000     5.321000000
H    -1.521000000    -1.459000000     4.347000000
O    -0.985000000     6.806000000    -3.241000000
H    -1.276000000     7.480000000    -3.856000000
H    -1.538000000     6.049000000    -3.436000000
O    -0.268000000    -4.817000000    -5.439000000
H    -0.825000000    -4.589000000    -4.695000000
H     0.405000000    -5.388000000    -5.069000000
O     1.420000000    -4.989000000    -1.144000000
H     1.810000000    -4.140000000    -0.941000000
H     0.572000000    -4.976000000    -0.699000000
O    -1.560000000    -5.005000000    -0.474000000
H    -1.196000000    -4.675000000     0.347000000
H    -2.426000000    -5.337000000    -0.235000000
O    -2.041000000     3.080000000     3.839000000
H    -1.725000000     3.853000000     3.373000000
H    -2.703000000     3.418000000     4.443000000
O    -4.888000000     1.663000000    -3.157000000
H    -5.717000000     1.378000000    -2.772000000
H    -4.618000000     2.408000000    -2.620000000
O     7.671000000    -1.814000000     1.678000000
H     8.029000000    -0.997000000     2.027000000
H     6.922000000    -2.006000000     2.242000000
O     0.998000000    -0.290000000    -4.905000000
H     1.252000000    -0.771000000    -4.117000000
H     0.875000000     0.611000000    -4.606000000
O     2.385000000    -4.037000000     2.321000000
H     3.341000000    -4.075000000     2.306000000
H     2.149000000    -3.605000000     1.500000000
O    -5.793000000     1.007000000     0.382000000
H    -5.344000000     1.468000000     1.090000000
H    -5.846000000     1.649000000    -0.326000000
O     4.852000000    -0.771000000    -3.874000000
H     5.312000000    -0.465000000    -3.093000000
H     5.155000000    -0.192000000    -4.573000000
O     4.979000000    -4.844000000     0.646000000
H     5.223000000    -4.168000000     1.279000000
H     4.194000000    -4.501000000     0.220000000
O    -5.936000000    -1.849000000     0.237000000
H    -6.261000000    -2.056000000    -0.639000000
H    -5.322000000    -1.127000000     0.100000000
O     5.414000000     1.344000000     2.154000000
H     5.085000000     0.449000000     2.244000000
H     5.806000000     1.369000000     1.281000000
O    -1.644000000     2.934000000    -4.419000000
H    -1.161000000     2.310000000    -3.877000000
H    -1.431000000     2.684000000    -5.318000000
O     2.298000000    -6.851000000     3.894000000
H     3.163000000    -7.246000000     3.790000000
H     2.438000000    -5.919000000     3.725000000
O    -2.492000000    -1.367000000    -3.123000000
H    -2.147000000    -0.610000000    -2.650000000
H    -2.982000000    -0.991000000    -3.854000000
O     1.850000000     4.627000000     0.015000000
H     2.178000000     4.339000000     0.866000000
H     2.604000000     5.044000000    -0.403000000
O    -6.509000000     3.256000000     3.070000000
H    -7.004000000     3.667000000     2.361000000
H    -7.041000000     3.405000000     3.852000000
O    -0.874000000     5.642000000     3.565000000
H    -1.633000000     6.159000000     3.834000000
H    -0.304000000     5.635000000     4.335000000
O     2.462000000    -4.895000000    -3.997000000
H     1.742000000    -4.847000000    -3.369000000
H     3.206000000    -5.215000000    -3.486000000
O     2.861000000     3.002000000    -3.131000000
H     3.281000000     3.098000000    -2.277000000
H     3.569000000     2.736000000    -3.718000000
O    -8.776000000     1.365000000     1.258000000
H    -7.820000000     1.328000000     1.286000000
H    -8.997000000     1.169000000     0.347000000
O     6.718000000     3.280000000     3.211000000
H     6.193000000     2.549000000     2.885000000
H     7.624000000     3.013000000     3.053000000
O    -1.999000000     7.914000000    -0.829000000
H    -1.753000000     7.127000000    -0.342000000
H    -1.457000000     7.886000000    -1.618000000
O    -2.276000000     0.440000000     4.163000000
H    -2.093000000     1.377000000     4.100000000
H    -3.177000000     0.350000000     3.850000000
O    -0.014000000     6.406000000     1.105000000
H     0.588000000     5.688000000     0.909000000
H    -0.340000000     6.211000000     1.984000000
O     2.302000000    -1.610000000    -2.958000000
H     2.792000000    -1.735000000    -2.146000000
H     2.895000000    -1.113000000    -3.522000000
O    -0.852000000    -2.156000000    -5.595000000
H    -0.246000000    -1.512000000    -5.227000000
H    -1.304000000    -2.521000000    -4.835000000
O    -0.238000000    -4.118000000     1.871000000
H    -0.842000000    -3.744000000     2.512000000
H     0.626000000    -4.026000000     2.274000000
O     5.818000000    -0.602000000    -0.942000000
H     6.310000000    -1.411000000    -1.077000000
H     4.975000000    -0.890000000    -0.591000000
O     3.281000000     3.375000000     2.196000000
H     3.210000000     3.627000000     3.116000000
H     3.729000000     2.530000000     2.212000000
O    -4.793000000     1.272000000     4.073000000
H    -5.332000000     1.742000000     3.437000000
H    -4.454000000     1.956000000     4.651000000
