144
-2822.79769
O    -6.274000000    -0.340000000    -3.483000000
H    -5.729000000     0.442000000    -3.387000000
H    -7.157000000     0.000000000    -3.624000000
O    -0.314000000    -3.730000000    -2.650000000
H    -1.189000000    -3.434000000    -2.400000000
H    -0.288000000    -4.651000000    -2.391000000
O    -0.862000000    -6.792000000     3.593000000
H    -0.169000000    -6.219000000     3.921000000
H    -0.722000000    -7.623000000     4.046000000
O    -3.810000000     2.041000000     4.582000000
H    -3.840000000     2.818000000     4.024000000
H    -2.945000000     1.664000000     4.421000000
O     4.337000000     3.765000000     4.082000000
H     4.895000000     4.513000000     4.294000000
H     3.453000000     4.130000000     4.036000000
O    -4.078000000     3.793000000    -0.177000000
H    -4.613000000     3.120000000     0.242000000
H    -4.441000000     4.620000000     0.139000000
O    -3.523000000     2.751000000    -6.258000000
H    -4.128000000     2.686000000    -6.996000000
H    -3.121000000     1.884000000    -6.201000000
O     0.763000000     5.450000000    -5.044000000
H     0.837000000     5.065000000    -4.171000000
H     0.267000000     4.805000000    -5.549000000
O     4.164000000    -3.137000000    -1.208000000
H     3.643000000    -3.657000000    -0.595000000
H     4.394000000    -3.751000000    -1.906000000
O    -1.782000000     4.676000000     0.696000000
H    -1.993000000     4.622000000     1.627000000
H    -2.569000000     4.361000000     0.252000000
O     4.845000000     1.661000000     2.011000000
H     4.116000000     1.731000000     2.626000000
H     4.493000000     1.989000000     1.184000000
O     1.374000000    -5.205000000     3.640000000
H     1.790000000    -4.830000000     4.416000000
H     1.265000000    -4.463000000     3.045000000
O    -0.646000000     6.287000000    -1.262000000
H    -0.931000000     5.548000000    -0.724000000
H     0.140000000     6.613000000    -0.824000000
O     1.705000000     4.317000000    -2.795000000
H     2.162000000     4.736000000    -2.066000000
H     2.249000000     3.561000000    -3.017000000
O     3.380000000     2.931000000    -0.172000000
H     3.060000000     2.488000000    -0.958000000
H     2.640000000     3.463000000     0.120000000
O    -1.572000000    -3.491000000     3.349000000
H    -1.397000000    -3.832000000     4.227000000
H    -0.709000000    -3.267000000     3.003000000
O    -2.765000000     1.151000000     1.476000000
H    -2.149000000     1.140000000     0.743000000
H    -2.247000000     1.463000000     2.219000000
O    -1.017000000    -4.255000000     6.002000000
H    -0.620000000    -4.813000000     6.671000000
H    -1.353000000    -3.501000000     6.488000000
O     1.759000000     4.485000000     3.722000000
H     2.033000000     4.310000000     2.821000000
H     1.180000000     5.244000000     3.654000000
O    -3.108000000    -4.323000000     1.059000000
H    -3.528000000    -5.051000000     1.517000000
H    -2.760000000    -3.769000000     1.758000000
O     2.358000000    -7.488000000     2.589000000
H     3.200000000    -7.562000000     3.038000000
H     1.904000000    -6.779000000     3.045000000
O     2.367000000    -4.011000000     6.165000000
H     1.772000000    -3.387000000     6.580000000
H     2.823000000    -3.501000000     5.496000000
O     1.247000000     4.714000000     0.987000000
H     0.364000000     4.455000000     1.249000000
H     1.178000000     5.650000000     0.801000000
O    -0.541000000    -4.261000000    -5.249000000
H     0.035000000    -4.988000000    -5.011000000
H    -0.403000000    -3.610000000    -4.561000000
O    -1.393000000     0.796000000     4.064000000
H    -1.162000000    -0.129000000     3.980000000
H    -1.206000000     1.008000000     4.978000000
O     5.437000000    -4.004000000     1.459000000
H     4.526000000    -3.988000000     1.167000000
H     5.932000000    -3.653000000     0.718000000
O    -0.492000000    -5.610000000     0.890000000
H    -0.358000000    -6.063000000     1.723000000
H    -1.335000000    -5.168000000     0.990000000
O    -2.981000000    -3.648000000    -1.694000000
H    -3.784000000    -3.217000000    -1.987000000
H    -3.178000000    -3.942000000    -0.805000000
O     2.472000000     1.644000000    -2.425000000
H     2.962000000     0.833000000    -2.558000000
H     1.558000000     1.397000000    -2.564000000
O     2.882000000    -4.515000000     0.895000000
H     2.293000000    -3.793000000     1.116000000
H     2.581000000    -5.244000000     1.437000000
O    -5.639000000    -2.829000000     1.123000000
H    -4.823000000    -2.743000000     0.631000000
H    -5.645000000    -2.075000000     1.712000000
O     0.353000000    -1.186000000     5.730000000
H     1.002000000    -0.534000000     5.993000000
H     0.691000000    -1.541000000     4.907000000
O    -2.486000000     6.620000000    -3.058000000
H    -1.741000000     6.430000000    -2.487000000
H    -2.217000000     6.296000000    -3.918000000
O    -0.428000000    -0.541000000    -5.398000000
H     0.166000000    -0.868000000    -4.722000000
H    -1.267000000    -0.436000000    -4.949000000
O     1.160000000    -1.618000000    -3.500000000
H     0.795000000    -2.468000000    -3.251000000
H     1.512000000    -1.261000000    -2.685000000
O    -0.635000000    -6.241000000    -1.589000000
H    -0.566000000    -6.016000000    -0.661000000
H     0.263000000    -6.442000000    -1.853000000
O    -2.237000000     4.731000000    -5.227000000
H    -2.365000000     4.972000000    -6.144000000
H    -2.740000000     3.924000000    -5.118000000
O    -5.096000000     2.095000000    -3.764000000
H    -5.090000000     2.288000000    -4.702000000
H    -4.832000000     2.916000000    -3.349000000
O     2.062000000     0.799000000     6.725000000
H     1.349000000     1.380000000     6.461000000
H     2.847000000     1.344000000     6.672000000
O    -2.785000000     0.194000000    -4.151000000
H    -3.479000000     0.648000000    -3.672000000
H    -3.245000000    -0.464000000    -4.673000000
O     0.273000000     2.126000000    -6.284000000
H    -0.515000000     2.471000000    -5.864000000
H     0.438000000     1.296000000    -5.836000000
O     2.407000000    -0.633000000    -6.496000000
H     1.492000000    -0.684000000    -6.221000000
H     2.810000000    -1.422000000    -6.133000000
O     0.660000000     3.662000000     6.249000000
H     1.077000000     3.658000000     5.387000000
H     1.007000000     4.444000000     6.679000000
O     3.522000000    -2.536000000     4.090000000
H     2.948000000    -1.830000000     3.794000000
H     3.736000000    -3.021000000     3.293000000
O    -5.518000000     2.180000000     1.450000000
H    -4.692000000     1.706000000     1.548000000
H    -6.188000000     1.496000000     1.448000000
O    -1.612000000    -1.974000000     7.403000000
H    -1.287000000    -1.575000000     8.210000000
H    -1.031000000    -1.640000000     6.719000000
O     5.323000000    -2.115000000     5.987000000
H     6.038000000    -2.515000000     5.492000000
H     4.571000000    -2.155000000     5.397000000
O    -4.267000000     4.501000000    -2.873000000
H    -3.591000000     5.169000000    -2.989000000
H    -4.161000000     4.207000000    -1.968000000
