144
-2822.40876
O     4.269000000     3.829000000     3.902000000
H     4.288000000     4.786000000     3.908000000
H     3.543000000     3.607000000     3.319000000
O     3.729000000     1.540000000     7.307000000
H     3.170000000     2.316000000     7.327000000
H     4.404000000     1.747000000     6.661000000
O    -6.351000000    -4.463000000    -1.999000000
H    -5.900000000    -3.634000000    -1.834000000
H    -6.381000000    -4.894000000    -1.145000000
O     1.726000000    -2.243000000     7.170000000
H     2.603000000    -2.066000000     7.510000000
H     1.724000000    -1.850000000     6.297000000
O     2.316000000     2.871000000     2.377000000
H     2.772000000     2.041000000     2.234000000
H     1.583000000     2.645000000     2.949000000
O    -5.829000000    -3.632000000     2.635000000
H    -4.912000000    -3.745000000     2.382000000
H    -5.856000000    -3.886000000     3.558000000
O     3.259000000    -2.529000000    -1.957000000
H     3.660000000    -3.249000000    -1.472000000
H     2.328000000    -2.582000000    -1.739000000
O    -2.310000000     1.169000000     6.632000000
H    -2.632000000     0.466000000     7.196000000
H    -2.256000000     0.773000000     5.763000000
O     2.552000000     4.123000000    -4.256000000
H     3.143000000     4.095000000    -3.504000000
H     2.784000000     3.350000000    -4.772000000
O    -4.685000000     4.381000000    -1.772000000
H    -5.453000000     3.834000000    -1.608000000
H    -4.330000000     4.054000000    -2.599000000
O    -2.502000000     5.417000000    -0.473000000
H    -3.348000000     5.061000000    -0.744000000
H    -1.920000000     4.657000000    -0.448000000
O     5.561000000     2.151000000     5.475000000
H     5.552000000     1.427000000     4.849000000
H     5.004000000     2.819000000     5.075000000
O    -5.395000000     2.449000000     1.171000000
H    -5.877000000     3.271000000     1.085000000
H    -5.981000000     1.787000000     0.802000000
O     5.657000000     1.667000000    -0.075000000
H     4.984000000     1.038000000     0.186000000
H     5.902000000     1.403000000    -0.961000000
O    -4.818000000    -1.814000000    -2.185000000
H    -5.119000000    -0.906000000    -2.199000000
H    -4.456000000    -1.933000000    -1.307000000
O     3.193000000     5.443000000    -0.870000000
H     2.527000000     4.854000000    -0.514000000
H     3.500000000     5.942000000    -0.113000000
O     2.893000000    -4.294000000     2.813000000
H     3.444000000    -4.959000000     3.225000000
H     3.494000000    -3.793000000     2.261000000
O    -2.375000000    -0.373000000     4.205000000
H    -2.085000000    -1.272000000     4.361000000
H    -2.948000000    -0.435000000     3.442000000
O     0.738000000    -3.387000000     4.189000000
H     1.399000000    -3.696000000     3.570000000
H     0.988000000    -2.482000000     4.376000000
O     5.049000000    -2.732000000     2.186000000
H     4.566000000    -1.965000000     1.879000000
H     5.637000000    -2.950000000     1.462000000
O    -3.139000000    -3.823000000     2.449000000
H    -3.004000000    -3.482000000     3.333000000
H    -2.915000000    -4.752000000     2.514000000
O    -5.103000000     1.828000000     4.356000000
H    -4.580000000     1.205000000     3.852000000
H    -5.233000000     2.568000000     3.763000000
O     4.777000000     0.410000000    -2.567000000
H     4.238000000     0.069000000    -3.281000000
H     4.492000000    -0.082000000    -1.797000000
O    -3.921000000     1.111000000    -6.394000000
H    -4.366000000     0.805000000    -7.184000000
H    -3.912000000     0.350000000    -5.814000000
O     1.623000000    -0.814000000     4.470000000
H     1.269000000     0.047000000     4.693000000
H     2.182000000    -0.654000000     3.709000000
O     3.199000000     1.828000000    -5.636000000
H     2.700000000     1.603000000    -6.421000000
H     2.868000000     1.233000000    -4.963000000
O     0.798000000     2.122000000     4.792000000
H     0.749000000     2.355000000     5.719000000
H    -0.093000000     2.249000000     4.466000000
O    -5.793000000     0.436000000    -3.976000000
H    -6.133000000     0.256000000    -4.852000000
H    -5.237000000     1.207000000    -4.088000000
O    -0.604000000     3.168000000    -0.138000000
H    -0.525000000     2.814000000     0.748000000
H    -0.346000000     2.444000000    -0.708000000
O     6.967000000    -3.730000000     0.415000000
H     7.667000000    -3.078000000     0.433000000
H     6.712000000    -3.783000000    -0.506000000
O    -3.357000000    -1.067000000    -4.903000000
H    -2.405000000    -1.132000000    -4.829000000
H    -3.674000000    -1.155000000    -4.005000000
O     2.136000000    -0.255000000    -3.978000000
H     1.183000000    -0.264000000    -3.893000000
H     2.364000000    -1.155000000    -4.213000000
O     5.524000000     0.134000000     3.484000000
H     5.778000000    -0.761000000     3.710000000
H     4.665000000     0.042000000     3.071000000
O     3.849000000    -4.808000000    -0.191000000
H     4.474000000    -5.445000000    -0.536000000
H     3.458000000    -5.243000000     0.567000000
O    -6.767000000     0.626000000    -0.149000000
H    -6.233000000    -0.122000000     0.120000000
H    -7.666000000     0.358000000     0.040000000
O    -4.340000000     0.322000000     2.358000000
H    -4.613000000     1.051000000     1.800000000
H    -4.398000000    -0.448000000     1.791000000
O    -0.401000000    -0.973000000    -4.481000000
H    -0.464000000    -0.278000000    -5.135000000
H    -0.549000000    -1.780000000    -4.974000000
O    -5.764000000    -1.747000000     0.750000000
H    -5.911000000    -2.122000000     1.618000000
H    -5.190000000    -2.375000000     0.311000000
O    -3.344000000    -2.944000000    -0.046000000
H    -2.578000000    -3.273000000    -0.518000000
H    -3.164000000    -3.147000000     0.872000000
O     3.239000000    -2.965000000    -4.664000000
H     4.033000000    -2.733000000    -5.145000000
H     3.427000000    -2.720000000    -3.758000000
O     5.659000000     4.076000000     1.487000000
H     5.335000000     3.974000000     2.382000000
H     5.599000000     3.198000000     1.110000000
O     4.766000000     3.057000000    -2.789000000
H     4.507000000     2.137000000    -2.841000000
H     4.602000000     3.301000000    -1.878000000
O     1.160000000     4.908000000     1.188000000
H     1.650000000     4.401000000     1.835000000
H     0.545000000     4.281000000     0.807000000
O     5.216000000    -2.838000000     5.416000000
H     6.061000000    -2.559000000     5.064000000
H     4.685000000    -3.027000000     4.643000000
O    -1.949000000    -3.120000000     4.658000000
H    -1.013000000    -3.169000000     4.464000000
H    -2.108000000    -3.849000000     5.258000000
O    -1.180000000     1.009000000    -6.577000000
H    -2.105000000     0.779000000    -6.661000000
H    -1.142000000     1.936000000    -6.814000000
O     7.555000000     0.905000000     1.857000000
H     7.132000000     0.532000000     2.631000000
H     6.829000000     1.159000000     1.287000000
O    -3.997000000     3.168000000    -4.224000000
H    -3.132000000     3.047000000    -4.616000000
H    -4.610000000     2.929000000    -4.919000000
