144
-2795.28043
O     3.269000000    -5.329000000    -1.345000000
H     4.189000000    -5.068000000    -1.314000000
H     2.904000000    -5.018000000    -0.516000000
O     6.089000000    -4.246000000     1.991000000
H     5.875000000    -3.454000000     2.485000000
H     5.338000000    -4.377000000     1.412000000
O     3.528000000     2.606000000     2.596000000
H     3.520000000     3.103000000     1.778000000
H     3.351000000     1.704000000     2.330000000
O    -3.423000000     3.999000000     0.682000000
H    -3.072000000     4.123000000    -0.200000000
H    -3.561000000     3.055000000     0.754000000
O     3.528000000     1.687000000     7.529000000
H     3.299000000     1.126000000     6.789000000
H     2.694000000     2.057000000     7.817000000
O     5.659000000    -1.612000000     0.364000000
H     5.845000000    -2.533000000     0.180000000
H     6.486000000    -1.162000000     0.189000000
O     0.560000000     6.741000000     3.151000000
H     1.374000000     6.828000000     3.646000000
H     0.735000000     6.040000000     2.523000000
O     1.911000000     2.829000000    -2.709000000
H     2.465000000     3.179000000    -3.407000000
H     1.270000000     2.282000000    -3.164000000
O     2.507000000    -0.400000000    -2.454000000
H     2.016000000     0.237000000    -2.973000000
H     1.835000000    -0.954000000    -2.057000000
O    -4.645000000    -0.535000000    -1.091000000
H    -4.723000000    -0.982000000    -0.248000000
H    -4.149000000     0.260000000    -0.896000000
O     1.999000000    -2.184000000     5.172000000
H     1.783000000    -1.967000000     4.266000000
H     2.517000000    -1.441000000     5.481000000
O    -2.056000000     1.617000000    -5.570000000
H    -1.533000000     1.605000000    -6.372000000
H    -2.448000000     0.745000000    -5.527000000
O    -2.360000000     4.889000000    -1.639000000
H    -1.484000000     5.190000000    -1.398000000
H    -2.303000000     4.713000000    -2.579000000
O    -3.551000000    -1.363000000     4.039000000
H    -2.953000000    -1.844000000     4.611000000
H    -2.979000000    -0.937000000     3.400000000
O     1.731000000     3.005000000    -6.206000000
H     2.383000000     3.702000000    -6.278000000
H     2.247000000     2.199000000    -6.163000000
O     2.982000000    -4.992000000     4.108000000
H     2.802000000    -5.549000000     4.865000000
H     3.150000000    -4.127000000     4.480000000
O    -2.102000000    -3.806000000     0.465000000
H    -1.249000000    -4.187000000     0.674000000
H    -1.941000000    -2.863000000     0.433000000
O    -0.718000000    -1.367000000    -5.129000000
H    -1.663000000    -1.307000000    -4.991000000
H    -0.620000000    -1.482000000    -6.074000000
O    -0.770000000     4.127000000     4.836000000
H     0.035000000     4.617000000     4.664000000
H    -1.046000000     4.417000000     5.705000000
O    -1.471000000    -4.706000000     3.927000000
H    -0.620000000    -4.429000000     3.586000000
H    -1.697000000    -4.039000000     4.576000000
O    -1.549000000    -0.076000000     2.917000000
H    -1.150000000    -0.011000000     2.049000000
H    -0.971000000     0.434000000     3.484000000
O     5.757000000     1.390000000     4.856000000
H     6.291000000     2.024000000     4.377000000
H     6.391000000     0.862000000     5.342000000
O    -3.468000000    -5.428000000     2.136000000
H    -3.107000000    -4.933000000     1.401000000
H    -2.888000000    -5.223000000     2.870000000
O     2.778000000     2.869000000    -0.026000000
H     3.305000000     2.077000000    -0.126000000
H     2.436000000     3.042000000    -0.904000000
O    -5.361000000    -2.343000000    -3.085000000
H    -5.321000000    -1.487000000    -2.659000000
H    -4.817000000    -2.909000000    -2.536000000
O    -3.175000000     4.380000000     3.418000000
H    -3.223000000     4.388000000     2.462000000
H    -2.256000000     4.195000000     3.610000000
O    -2.074000000    -5.292000000    -3.620000000
H    -1.929000000    -6.212000000    -3.839000000
H    -2.711000000    -5.314000000    -2.905000000
O    -7.328000000     0.368000000    -0.028000000
H    -6.471000000    -0.056000000    -0.056000000
H    -7.252000000     1.017000000     0.671000000
O     0.548000000     0.867000000    -4.091000000
H    -0.159000000     1.512000000    -4.080000000
H     0.116000000     0.041000000    -4.305000000
O     3.431000000    -4.338000000     1.157000000
H     2.986000000    -3.646000000     1.647000000
H     3.705000000    -4.966000000     1.826000000
O    -0.029000000    -7.087000000     4.113000000
H    -0.037000000    -7.316000000     3.184000000
H     0.162000000    -6.149000000     4.126000000
O    -3.848000000     1.302000000     1.124000000
H    -3.336000000     0.846000000     1.792000000
H    -4.631000000     1.602000000     1.585000000
O     3.537000000     0.178000000     5.305000000
H     4.364000000     0.648000000     5.195000000
H     3.277000000    -0.059000000     4.415000000
O     0.277000000    -3.840000000    -4.417000000
H    -0.010000000    -2.937000000    -4.282000000
H    -0.514000000    -4.364000000    -4.290000000
O     0.633000000    -4.440000000     1.867000000
H     0.917000000    -3.571000000     2.150000000
H     1.435000000    -4.869000000     1.568000000
O     1.051000000     5.150000000     1.083000000
H     1.960000000     4.853000000     1.140000000
H     0.797000000     4.969000000     0.179000000
O    -3.384000000    -0.947000000    -5.344000000
H    -3.417000000    -1.827000000    -5.720000000
H    -4.302000000    -0.687000000    -5.265000000
O    -2.294000000     4.275000000    -4.286000000
H    -2.183000000     3.448000000    -4.755000000
H    -2.111000000     4.949000000    -4.941000000
O     4.295000000     0.665000000    -0.721000000
H     4.672000000    -0.059000000    -0.220000000
H     3.728000000     0.241000000    -1.365000000
O     0.611000000     5.057000000    -1.507000000
H     1.090000000     4.270000000    -1.766000000
H     0.700000000     5.648000000    -2.255000000
O     4.148000000     3.959000000     5.271000000
H     4.115000000     3.366000000     6.022000000
H     4.220000000     3.381000000     4.512000000
O     4.918000000    -1.773000000     3.270000000
H     3.982000000    -1.850000000     3.085000000
H     5.258000000    -1.226000000     2.562000000
O     5.271000000    -1.586000000     6.654000000
H     5.981000000    -0.996000000     6.401000000
H     4.514000000    -1.277000000     6.158000000
O     0.893000000     1.034000000     4.359000000
H     1.471000000     0.435000000     3.888000000
H     1.468000000     1.742000000     4.651000000
O    -4.042000000    -4.345000000    -1.652000000
H    -3.416000000    -4.384000000    -0.929000000
H    -4.746000000    -4.939000000    -1.392000000
O     5.728000000    -4.159000000     4.937000000
H     5.193000000    -3.425000000     4.635000000
H     6.618000000    -3.810000000     4.968000000
O    -0.425000000    -0.542000000     6.850000000
H     0.452000000    -0.685000000     7.206000000
H    -0.275000000    -0.111000000     6.009000000
O    -5.154000000     5.323000000    -3.054000000
H    -5.037000000     6.033000000    -2.423000000
H    -4.371000000     4.782000000    -2.952000000
