144
-2836.05095
O     1.941000000     3.710000000     6.573000000
H     1.013000000     3.604000000     6.784000000
H     1.983000000     3.615000000     5.622000000
O     2.313000000    -4.278000000     0.944000000
H     2.459000000    -3.577000000     1.579000000
H     3.136000000    -4.766000000     0.933000000
O     1.962000000     3.184000000     3.858000000
H     2.893000000     3.394000000     3.928000000
H     1.941000000     2.319000000     3.449000000
O    -3.904000000     2.218000000     0.509000000
H    -3.519000000     2.986000000     0.086000000
H    -4.739000000     2.530000000     0.858000000
O     3.547000000     1.302000000     6.939000000
H     3.503000000     1.048000000     6.017000000
H     3.086000000     2.140000000     6.979000000
O    -0.131000000    -5.449000000     1.321000000
H     0.171000000    -5.879000000     2.121000000
H     0.672000000    -5.170000000     0.881000000
O     4.168000000    -0.690000000     0.458000000
H     4.172000000     0.264000000     0.385000000
H     3.459000000    -0.971000000    -0.121000000
O    -1.310000000     4.395000000     3.174000000
H    -0.460000000     4.436000000     3.613000000
H    -1.169000000     4.835000000     2.336000000
O     3.494000000     6.455000000    -0.188000000
H     2.772000000     5.890000000    -0.462000000
H     3.148000000     6.940000000     0.561000000
O     5.461000000     4.687000000     0.638000000
H     4.792000000     5.178000000     0.160000000
H     5.267000000     3.769000000     0.446000000
O    -4.225000000    -3.025000000    -3.812000000
H    -4.508000000    -3.860000000    -4.185000000
H    -4.974000000    -2.727000000    -3.295000000
O     3.026000000    -3.208000000     3.896000000
H     3.843000000    -3.017000000     3.434000000
H     2.533000000    -2.389000000     3.859000000
O    -2.986000000    -1.779000000     5.185000000
H    -3.429000000    -2.606000000     4.997000000
H    -2.090000000    -1.913000000     4.877000000
O    -2.974000000     2.018000000    -5.004000000
H    -3.530000000     1.291000000    -5.285000000
H    -2.166000000     1.910000000    -5.505000000
O    -1.478000000     5.514000000    -2.183000000
H    -0.862000000     5.063000000    -2.761000000
H    -1.786000000     6.260000000    -2.697000000
O     4.450000000     3.955000000     3.614000000
H     4.361000000     3.530000000     2.761000000
H     5.391000000     3.950000000     3.787000000
O     1.971000000    -5.383000000    -1.519000000
H     1.955000000    -4.784000000    -0.773000000
H     2.487000000    -4.925000000    -2.183000000
O    -4.403000000    -2.474000000     1.208000000
H    -4.563000000    -3.223000000     0.633000000
H    -3.630000000    -2.723000000     1.715000000
O    -1.622000000    -4.149000000    -3.175000000
H    -2.109000000    -3.381000000    -3.473000000
H    -2.297000000    -4.766000000    -2.892000000
O     0.319000000    -1.126000000    -5.158000000
H     0.482000000    -0.410000000    -5.772000000
H    -0.189000000    -1.762000000    -5.661000000
O     2.493000000    -3.389000000     6.680000000
H     3.004000000    -2.829000000     7.265000000
H     2.993000000    -3.401000000     5.864000000
O    -2.108000000    -3.843000000     2.320000000
H    -1.423000000    -4.310000000     1.841000000
H    -1.659000000    -3.473000000     3.080000000
O    -2.587000000     0.715000000     2.153000000
H    -1.739000000     0.507000000     1.762000000
H    -3.006000000     1.299000000     1.521000000
O     6.719000000     1.028000000     2.439000000
H     7.376000000     1.457000000     2.987000000
H     7.093000000     1.045000000     1.558000000
O     2.015000000    -5.799000000     3.753000000
H     2.485000000    -4.968000000     3.825000000
H     2.257000000    -6.137000000     2.891000000
O    -0.753000000    -1.862000000     7.510000000
H    -0.498000000    -1.429000000     6.695000000
H    -0.594000000    -1.207000000     8.189000000
O    -1.411000000    -6.934000000    -1.082000000
H    -1.259000000    -7.113000000    -0.154000000
H    -0.613000000    -6.496000000    -1.375000000
O     1.861000000     2.664000000    -4.928000000
H     2.471000000     2.699000000    -4.190000000
H     1.943000000     1.772000000    -5.264000000
O    -1.255000000     1.893000000     4.445000000
H    -1.871000000     1.387000000     3.915000000
H    -1.253000000     2.763000000     4.044000000
O     2.421000000    -0.784000000    -1.662000000
H     1.574000000    -1.100000000    -1.978000000
H     2.236000000     0.087000000    -1.311000000
O     5.085000000    -2.794000000     2.051000000
H     4.752000000    -2.257000000     1.332000000
H     6.030000000    -2.640000000     2.046000000
O    -5.240000000    -0.163000000     0.016000000
H    -4.728000000    -0.952000000     0.191000000
H    -4.605000000     0.551000000     0.068000000
O     4.404000000    -0.684000000     3.797000000
H     4.606000000    -0.641000000     2.862000000
H     3.610000000    -0.157000000     3.895000000
O     0.525000000    -2.465000000    -2.835000000
H     0.312000000    -1.895000000    -3.575000000
H    -0.105000000    -3.183000000    -2.898000000
O     3.308000000    -3.162000000    -3.806000000
H     4.114000000    -2.862000000    -3.387000000
H     2.607000000    -2.764000000    -3.290000000
O    -0.894000000     5.524000000     0.884000000
H    -1.300000000     5.517000000     0.017000000
H    -1.073000000     6.400000000     1.225000000
O    -3.571000000    -0.828000000    -5.740000000
H    -4.462000000    -1.111000000    -5.943000000
H    -3.352000000    -1.288000000    -4.930000000
O    -1.831000000    -2.501000000    -7.146000000
H    -2.218000000    -1.836000000    -6.576000000
H    -1.664000000    -3.244000000    -6.567000000
O    -3.609000000     4.618000000    -0.895000000
H    -2.802000000     4.682000000    -1.405000000
H    -4.302000000     4.540000000    -1.551000000
O     0.693000000     5.069000000    -3.582000000
H     0.818000000     4.192000000    -3.945000000
H     1.212000000     5.639000000    -4.149000000
O     3.952000000     3.032000000    -3.106000000
H     4.439000000     2.776000000    -2.322000000
H     4.069000000     3.981000000    -3.161000000
O    -0.471000000    -4.259000000     6.570000000
H     0.479000000    -4.281000000     6.455000000
H    -0.642000000    -3.419000000     6.996000000
O     4.252000000     1.741000000     1.449000000
H     3.612000000     1.299000000     2.007000000
H     5.099000000     1.531000000     1.842000000
O     1.753000000     4.440000000    -0.784000000
H     1.291000000     4.603000000    -1.607000000
H     1.057000000     4.314000000    -0.139000000
O     0.067000000    -0.153000000     5.514000000
H     0.601000000    -0.399000000     4.759000000
H    -0.449000000     0.594000000     5.210000000
O     5.910000000    -1.713000000     5.814000000
H     5.444000000    -1.564000000     6.637000000
H     5.270000000    -1.500000000     5.135000000
O    -0.519000000    -2.875000000     4.110000000
H    -0.168000000    -3.324000000     4.878000000
H     0.243000000    -2.463000000     3.703000000
O    -0.642000000     1.592000000    -6.892000000
H    -0.434000000     2.521000000    -6.991000000
H    -0.535000000     1.227000000    -7.770000000
