144
-2840.17904
O     1.411000000    -4.348000000     0.860000000
H     1.352000000    -5.017000000     1.543000000
H     0.545000000    -3.942000000     0.846000000
O     5.251000000     0.815000000     1.752000000
H     5.743000000     0.768000000     0.932000000
H     4.666000000     0.058000000     1.724000000
O     5.857000000     4.848000000    -2.990000000
H     5.263000000     4.624000000    -2.273000000
H     6.060000000     4.009000000    -3.403000000
O    -0.289000000    -6.302000000    -1.854000000
H     0.013000000    -7.131000000    -1.483000000
H     0.485000000    -5.739000000    -1.844000000
O     4.372000000     3.957000000    -0.152000000
H     4.467000000     3.072000000    -0.504000000
H     5.156000000     4.089000000     0.380000000
O    -4.084000000     0.875000000     1.753000000
H    -3.719000000     0.362000000     2.475000000
H    -3.755000000     1.762000000     1.899000000
O     0.611000000     0.276000000    -6.816000000
H    -0.168000000     0.791000000    -6.604000000
H     1.110000000     0.830000000    -7.415000000
O     2.208000000     5.452000000     0.165000000
H     1.513000000     4.828000000    -0.046000000
H     3.014000000     5.014000000    -0.107000000
O     5.563000000     0.340000000    -3.998000000
H     4.869000000     0.497000000    -4.638000000
H     6.043000000    -0.412000000    -4.345000000
O    -1.658000000    -2.685000000     5.834000000
H    -1.469000000    -2.614000000     4.899000000
H    -2.508000000    -3.124000000     5.874000000
O    -1.371000000     0.283000000     4.733000000
H    -1.509000000    -0.623000000     4.456000000
H    -0.425000000     0.350000000     4.867000000
O     0.445000000    -3.108000000    -3.430000000
H     0.802000000    -3.705000000    -2.771000000
H     1.160000000    -2.499000000    -3.614000000
O    -3.673000000    -1.232000000     3.469000000
H    -3.180000000    -1.754000000     2.837000000
H    -3.857000000    -1.836000000     4.188000000
O    -1.634000000    -5.725000000     0.755000000
H    -1.494000000    -4.888000000     1.198000000
H    -1.081000000    -5.678000000    -0.025000000
O     2.025000000    -4.764000000    -1.582000000
H     2.073000000    -4.403000000    -0.697000000
H     2.679000000    -5.463000000    -1.592000000
O    -1.745000000     2.793000000     1.884000000
H    -1.853000000     2.739000000     2.833000000
H    -1.230000000     2.018000000     1.657000000
O     3.380000000    -2.876000000     1.745000000
H     3.081000000    -2.453000000     2.551000000
H     2.718000000    -3.544000000     1.566000000
O     4.914000000     1.139000000    -1.293000000
H     5.105000000     0.692000000    -2.118000000
H     4.188000000     0.643000000    -0.915000000
O     2.837000000     0.954000000    -4.948000000
H     2.837000000     0.110000000    -5.400000000
H     2.118000000     1.440000000    -5.350000000
O     1.769000000    -6.141000000     2.994000000
H     1.049000000    -6.491000000     3.518000000
H     2.416000000    -5.853000000     3.638000000
O     2.110000000     4.493000000     2.738000000
H     1.353000000     4.664000000     3.299000000
H     1.823000000     4.751000000     1.863000000
O    -3.057000000     3.965000000    -3.585000000
H    -2.408000000     4.185000000    -2.917000000
H    -2.756000000     4.421000000    -4.371000000
O    -5.375000000    -4.655000000     2.631000000
H    -5.711000000    -5.475000000     2.269000000
H    -5.144000000    -4.131000000     1.864000000
O    -3.903000000    -2.836000000     0.724000000
H    -3.835000000    -3.380000000    -0.061000000
H    -4.348000000    -2.042000000     0.428000000
O    -2.515000000    -4.473000000     3.620000000
H    -3.352000000    -4.581000000     3.168000000
H    -1.959000000    -4.017000000     2.987000000
O    -2.942000000    -7.887000000     1.780000000
H    -2.655000000    -7.057000000     1.398000000
H    -2.130000000    -8.357000000     1.970000000
O    -2.482000000     5.610000000    -1.442000000
H    -2.280000000     6.439000000    -1.877000000
H    -3.303000000     5.777000000    -0.979000000
O    -1.900000000     1.303000000    -4.838000000
H    -2.462000000     0.589000000    -5.138000000
H    -2.490000000     2.052000000    -4.752000000
O     0.799000000    -1.812000000     7.089000000
H     0.737000000    -0.915000000     7.417000000
H    -0.101000000    -2.048000000     6.862000000
O    -2.407000000    -2.291000000    -3.245000000
H    -2.530000000    -1.376000000    -3.496000000
H    -1.459000000    -2.421000000    -3.270000000
O     3.173000000    -1.886000000    -3.234000000
H     3.111000000    -1.285000000    -3.977000000
H     3.828000000    -1.490000000    -2.659000000
O    -2.917000000    -5.934000000    -2.637000000
H    -3.307000000    -6.649000000    -2.135000000
H    -1.992000000    -5.944000000    -2.392000000
O    -4.114000000    -3.510000000    -4.993000000
H    -3.402000000    -4.110000000    -5.214000000
H    -3.690000000    -2.806000000    -4.502000000
O    -4.016000000     2.278000000    -1.650000000
H    -3.305000000     1.658000000    -1.486000000
H    -3.721000000     2.786000000    -2.406000000
O    -4.951000000    -0.622000000    -0.541000000
H    -5.632000000    -0.454000000    -1.192000000
H    -5.038000000     0.094000000     0.088000000
O    -4.505000000    -3.892000000    -1.676000000
H    -4.332000000    -2.962000000    -1.823000000
H    -3.888000000    -4.344000000    -2.251000000
O     0.634000000     2.831000000    -4.924000000
H     0.396000000     3.216000000    -5.767000000
H    -0.040000000     2.170000000    -4.763000000
O     3.584000000     3.358000000    -3.976000000
H     3.513000000     2.426000000    -4.180000000
H     2.721000000     3.596000000    -3.638000000
O     3.164000000    -0.878000000    -0.384000000
H     2.284000000    -0.519000000    -0.273000000
H     3.141000000    -1.716000000     0.079000000
O     0.021000000    -3.573000000    -5.944000000
H     0.196000000    -3.389000000    -5.021000000
H    -0.842000000    -3.988000000    -5.945000000
O    -2.893000000     2.513000000     4.724000000
H    -3.819000000     2.340000000     4.891000000
H    -2.526000000     1.657000000     4.502000000
O     1.994000000    -1.584000000     3.892000000
H     2.050000000    -0.711000000     4.282000000
H     1.079000000    -1.668000000     3.625000000
O     3.212000000    -1.975000000     6.325000000
H     2.896000000    -1.653000000     5.481000000
H     2.420000000    -2.088000000     6.850000000
O     3.484000000     2.207000000     3.517000000
H     3.949000000     1.931000000     2.727000000
H     3.121000000     3.064000000     3.293000000
O    -0.652000000     4.445000000     0.077000000
H    -1.300000000     4.846000000    -0.502000000
H    -1.163000000     3.872000000     0.649000000
O     1.340000000     0.979000000     4.911000000
H     2.188000000     1.403000000     4.782000000
H     0.798000000     1.648000000     5.329000000
O     1.092000000    -4.262000000     5.353000000
H     0.978000000    -3.682000000     4.600000000
H     0.992000000    -3.690000000     6.113000000
O    -0.509000000     5.715000000    -4.061000000
H     0.284000000     6.228000000    -4.216000000
H    -0.689000000     5.827000000    -3.127000000
