144
-2810.68660
O     2.449000000     5.197000000    -1.903000000
H     3.087000000     5.828000000    -1.571000000
H     2.569000000     4.422000000    -1.354000000
O     1.006000000    -2.794000000     6.524000000
H     1.395000000    -3.669000000     6.528000000
H     1.564000000    -2.286000000     5.936000000
O     6.536000000     0.918000000    -3.335000000
H     7.187000000     0.298000000    -3.665000000
H     5.766000000     0.772000000    -3.885000000
O     0.109000000    -1.904000000    -5.626000000
H    -0.489000000    -1.568000000    -6.293000000
H    -0.437000000    -2.468000000    -5.078000000
O    -1.396000000    -3.879000000    -4.149000000
H    -1.475000000    -4.271000000    -3.279000000
H    -2.299000000    -3.781000000    -4.450000000
O     3.084000000    -4.675000000     3.931000000
H     2.990000000    -3.807000000     3.539000000
H     3.426000000    -4.505000000     4.809000000
O    -0.577000000     3.267000000     3.378000000
H    -1.076000000     3.726000000     4.054000000
H    -0.660000000     2.341000000     3.606000000
O     0.750000000     0.939000000    -6.377000000
H     1.489000000     0.488000000    -5.969000000
H     0.540000000     0.408000000    -7.145000000
O     2.576000000    -4.159000000    -2.894000000
H     2.735000000    -3.332000000    -3.349000000
H     1.641000000    -4.324000000    -3.016000000
O     2.352000000     2.031000000     5.076000000
H     2.061000000     1.445000000     4.377000000
H     3.202000000     1.681000000     5.343000000
O    -5.002000000    -0.776000000    -0.833000000
H    -5.744000000    -0.939000000    -0.250000000
H    -5.367000000    -0.250000000    -1.544000000
O     2.248000000    -2.653000000     2.587000000
H     2.524000000    -2.755000000     1.676000000
H     2.194000000    -1.706000000     2.716000000
O    -2.589000000    -4.843000000     2.562000000
H    -1.838000000    -4.287000000     2.769000000
H    -2.248000000    -5.481000000     1.935000000
O    -4.296000000    -2.750000000     2.648000000
H    -5.150000000    -3.170000000     2.750000000
H    -3.675000000    -3.478000000     2.599000000
O    -3.460000000    -0.423000000     7.038000000
H    -3.685000000    -1.343000000     6.899000000
H    -3.215000000    -0.102000000     6.170000000
O     2.682000000     3.710000000     2.803000000
H     2.834000000     3.455000000     3.713000000
H     1.822000000     3.346000000     2.593000000
O    -4.528000000    -3.471000000    -1.906000000
H    -5.419000000    -3.783000000    -1.745000000
H    -4.545000000    -2.551000000    -1.643000000
O    -0.510000000    -3.079000000     0.172000000
H    -0.553000000    -3.221000000     1.118000000
H    -0.827000000    -2.184000000     0.050000000
O    -0.447000000    -3.503000000     2.928000000
H     0.506000000    -3.568000000     2.991000000
H    -0.695000000    -2.917000000     3.643000000
O     3.030000000     0.928000000    -4.249000000
H     3.644000000     1.339000000    -4.859000000
H     3.298000000     1.249000000    -3.388000000
O    -1.241000000     1.796000000     8.671000000
H    -0.855000000     2.643000000     8.895000000
H    -0.827000000     1.556000000     7.842000000
O    -2.136000000     0.157000000    -5.974000000
H    -1.202000000     0.361000000    -6.004000000
H    -2.359000000    -0.082000000    -6.873000000
O     6.457000000    -2.536000000     0.840000000
H     5.973000000    -2.166000000     0.101000000
H     6.034000000    -3.379000000     1.004000000
O     3.997000000     1.777000000    -1.940000000
H     3.707000000     1.694000000    -1.031000000
H     4.624000000     2.500000000    -1.926000000
O    -0.067000000     1.547000000     6.117000000
H     0.772000000     1.671000000     5.674000000
H    -0.541000000     0.928000000     5.562000000
O    -5.011000000     2.611000000    -2.476000000
H    -4.869000000     3.516000000    -2.754000000
H    -4.542000000     2.539000000    -1.645000000
O    -1.316000000    -1.781000000     5.343000000
H    -1.140000000    -0.982000000     4.845000000
H    -0.508000000    -1.941000000     5.830000000
O     4.154000000    -1.399000000    -1.099000000
H     4.046000000    -0.990000000    -1.958000000
H     3.475000000    -2.074000000    -1.069000000
O     2.425000000    -1.891000000    -4.157000000
H     2.657000000    -0.980000000    -4.332000000
H     1.570000000    -2.005000000    -4.572000000
O    -1.462000000    -4.278000000     6.159000000
H    -0.667000000    -4.729000000     5.874000000
H    -1.408000000    -3.415000000     5.750000000
O    -4.390000000    -0.223000000     2.083000000
H    -4.248000000    -1.111000000     2.410000000
H    -4.540000000    -0.335000000     1.144000000
O    -4.316000000     1.346000000    -5.116000000
H    -3.660000000     0.671000000    -5.289000000
H    -4.086000000     1.688000000    -4.252000000
O    -3.281000000     0.867000000     4.392000000
H    -3.809000000     0.394000000     3.748000000
H    -2.376000000     0.699000000     4.130000000
O     1.844000000     3.456000000    -5.015000000
H     1.931000000     2.514000000    -5.159000000
H     1.742000000     3.545000000    -4.067000000
O     6.263000000     0.870000000     1.151000000
H     6.475000000     0.167000000     1.765000000
H     5.679000000     0.463000000     0.512000000
O     2.138000000    -3.312000000    -0.076000000
H     2.379000000    -3.424000000    -0.996000000
H     1.186000000    -3.212000000    -0.088000000
O    -3.223000000     3.409000000    -0.298000000
H    -3.154000000     4.219000000    -0.804000000
H    -3.114000000     3.685000000     0.612000000
O    -4.856000000     2.532000000     2.233000000
H    -4.298000000     1.803000000     2.503000000
H    -5.646000000     2.114000000     1.890000000
O    -3.677000000     3.129000000     6.729000000
H    -4.584000000     3.432000000     6.745000000
H    -3.696000000     2.344000000     6.181000000
O    -0.665000000     4.399000000    -5.858000000
H    -0.343000000     5.202000000    -6.268000000
H     0.120000000     3.869000000    -5.719000000
O    -6.476000000    -0.758000000     4.120000000
H    -7.051000000    -0.953000000     3.380000000
H    -5.649000000    -0.493000000     3.717000000
O     3.127000000    -1.331000000     5.343000000
H     3.432000000    -0.697000000     5.991000000
H     2.711000000    -0.799000000     4.664000000
O     0.044000000     2.919000000     0.757000000
H    -0.583000000     2.314000000     0.361000000
H    -0.384000000     3.217000000     1.559000000
O     3.772000000     0.506000000     7.341000000
H     4.661000000     0.761000000     7.587000000
H     3.545000000    -0.193000000     7.955000000
O    -3.080000000     3.270000000    -6.521000000
H    -3.263000000     2.750000000    -5.738000000
H    -2.213000000     3.643000000    -6.364000000
O    -7.032000000     0.914000000    -2.322000000
H    -6.206000000     1.393000000    -2.255000000
H    -7.594000000     1.479000000    -2.853000000
O    -2.141000000    -4.849000000    -1.526000000
H    -1.448000000    -4.643000000    -0.899000000
H    -2.704000000    -4.075000000    -1.525000000
O     2.684000000     3.237000000     0.157000000
H     1.735000000     3.129000000     0.226000000
H     2.971000000     3.414000000     1.053000000
