144
-2852.32791
O    -3.090000000    -4.195000000    -3.040000000
H    -3.021000000    -3.929000000    -2.123000000
H    -2.987000000    -3.381000000    -3.534000000
O     5.427000000     2.844000000     2.578000000
H     5.614000000     1.982000000     2.950000000
H     6.261000000     3.130000000     2.207000000
O     4.249000000    -3.542000000    -3.480000000
H     3.391000000    -3.669000000    -3.885000000
H     4.797000000    -4.230000000    -3.858000000
O     3.028000000     3.383000000    -3.357000000
H     2.851000000     4.194000000    -3.833000000
H     3.883000000     3.525000000    -2.951000000
O     4.329000000     1.308000000     5.672000000
H     5.171000000     1.078000000     6.066000000
H     3.771000000     0.549000000     5.841000000
O     0.144000000     1.760000000     8.695000000
H     1.005000000     2.170000000     8.613000000
H    -0.113000000     1.561000000     7.794000000
O     0.751000000    -4.605000000    -2.257000000
H     1.021000000    -4.021000000    -2.966000000
H    -0.148000000    -4.344000000    -2.060000000
O    -1.178000000     5.075000000     4.318000000
H    -1.757000000     5.683000000     3.856000000
H    -0.512000000     4.842000000     3.672000000
O     1.701000000    -3.988000000    -4.996000000
H     0.862000000    -4.425000000    -5.142000000
H     1.600000000    -3.131000000    -5.410000000
O    -3.239000000     4.187000000     5.690000000
H    -2.444000000     4.566000000     5.314000000
H    -3.083000000     3.243000000     5.679000000
O     4.259000000    -2.691000000    -0.838000000
H     4.211000000    -2.824000000    -1.785000000
H     4.174000000    -3.571000000    -0.469000000
O     5.184000000    -0.913000000    -3.968000000
H     5.137000000    -1.811000000    -3.639000000
H     4.960000000    -0.370000000    -3.212000000
O    -3.230000000     1.257000000     5.117000000
H    -4.063000000     0.805000000     4.979000000
H    -2.777000000     1.185000000     4.278000000
O    -2.645000000    -1.673000000    -4.605000000
H    -2.534000000    -1.538000000    -5.546000000
H    -2.819000000    -0.799000000    -4.255000000
O     1.857000000    -0.319000000     4.729000000
H     1.088000000    -0.886000000     4.797000000
H     1.573000000     0.404000000     4.170000000
O     4.390000000     4.242000000     0.218000000
H     4.075000000     3.453000000    -0.223000000
H     4.619000000     3.949000000     1.100000000
O     3.290000000     1.124000000    -5.446000000
H     3.322000000     2.050000000    -5.206000000
H     3.780000000     0.680000000    -4.754000000
O    -2.720000000    -3.011000000     3.072000000
H    -2.976000000    -2.089000000     3.064000000
H    -3.003000000    -3.345000000     2.221000000
O     0.484000000     0.784000000    -5.274000000
H     1.160000000     1.381000000    -4.953000000
H     0.909000000    -0.073000000    -5.292000000
O    -0.754000000    -5.069000000    -5.292000000
H    -1.433000000    -4.660000000    -4.755000000
H    -1.062000000    -5.965000000    -5.425000000
O     4.139000000    -0.912000000     3.200000000
H     3.492000000    -0.592000000     3.828000000
H     4.851000000    -1.252000000     3.742000000
O    -5.934000000    -0.518000000     1.512000000
H    -6.495000000    -1.242000000     1.235000000
H    -5.810000000     0.006000000     0.721000000
O    -0.584000000     0.883000000     6.085000000
H    -1.519000000     1.075000000     6.019000000
H    -0.246000000     1.029000000     5.201000000
O     2.646000000    -2.899000000     1.633000000
H     1.930000000    -2.850000000     1.000000000
H     3.168000000    -2.114000000     1.466000000
O    -0.362000000    -2.428000000     4.487000000
H    -1.201000000    -2.538000000     4.040000000
H     0.201000000    -3.104000000     4.108000000
O    -5.426000000     0.827000000    -0.843000000
H    -4.872000000     1.593000000    -0.994000000
H    -4.878000000     0.082000000    -1.092000000
O     2.523000000     2.616000000     7.519000000
H     3.159000000     2.345000000     6.857000000
H     1.870000000     3.118000000     7.031000000
O     1.379000000    -1.925000000    -6.751000000
H     2.253000000    -1.739000000    -7.095000000
H     0.946000000    -2.414000000    -7.451000000
O    -3.486000000     3.212000000    -0.428000000
H    -3.824000000     4.095000000    -0.573000000
H    -3.380000000     3.149000000     0.521000000
O     6.893000000    -0.674000000    -0.117000000
H     7.128000000    -0.046000000    -0.800000000
H     6.114000000    -1.116000000    -0.455000000
O     3.450000000     4.228000000     3.961000000
H     4.043000000     4.275000000     4.711000000
H     4.004000000     3.941000000     3.235000000
O    -1.553000000     0.041000000    -6.805000000
H    -1.323000000     0.582000000    -7.560000000
H    -0.796000000     0.110000000    -6.222000000
O     0.386000000     4.533000000     6.487000000
H    -0.229000000     4.641000000     5.761000000
H     0.027000000     5.077000000     7.188000000
O    -4.213000000    -1.398000000    -1.554000000
H    -4.311000000    -1.571000000    -2.491000000
H    -4.567000000    -2.178000000    -1.128000000
O     2.260000000     2.446000000    -0.920000000
H     1.440000000     1.977000000    -0.766000000
H     2.201000000     2.741000000    -1.828000000
O    -3.683000000    -0.495000000     2.924000000
H    -3.117000000     0.276000000     2.875000000
H    -4.485000000    -0.232000000     2.473000000
O     4.318000000     0.847000000    -2.062000000
H     3.430000000     1.177000000    -1.922000000
H     4.883000000     1.602000000    -1.900000000
O     1.380000000    -6.520000000    -0.106000000
H     0.572000000    -6.601000000     0.402000000
H     1.154000000    -5.928000000    -0.823000000
O    -6.951000000     0.686000000     3.887000000
H    -6.363000000     0.232000000     3.283000000
H    -7.578000000     0.016000000     4.159000000
O    -5.589000000    -1.292000000    -3.953000000
H    -6.312000000    -1.569000000    -3.390000000
H    -5.561000000    -0.340000000    -3.856000000
O    -3.937000000     3.266000000     2.506000000
H    -4.208000000     3.246000000     3.424000000
H    -3.126000000     2.759000000     2.485000000
O    -0.947000000     3.349000000    -1.991000000
H    -0.430000000     4.025000000    -1.553000000
H    -1.718000000     3.238000000    -1.435000000
O    -0.535000000    -1.775000000     7.377000000
H    -0.862000000    -2.219000000     6.594000000
H    -0.436000000    -0.862000000     7.110000000
O    -1.953000000     1.132000000    -3.775000000
H    -1.700000000     1.931000000    -3.313000000
H    -1.141000000     0.816000000    -4.170000000
O    -0.321000000     4.875000000     0.643000000
H    -0.556000000     5.766000000     0.901000000
H     0.043000000     4.483000000     1.437000000
O    -1.674000000    -3.179000000    -0.802000000
H    -2.091000000    -2.324000000    -0.695000000
H    -1.378000000    -3.413000000     0.078000000
O    -4.643000000     1.482000000    -4.300000000
H    -4.740000000     1.138000000    -5.188000000
H    -3.700000000     1.604000000    -4.191000000
O     0.814000000     3.745000000     2.933000000
H     0.862000000     2.844000000     3.252000000
H     1.569000000     4.179000000     3.329000000
