144
-2822.84820
O     5.786000000     1.368000000    -5.360000000
H     5.568000000     2.258000000    -5.639000000
H     5.038000000     1.092000000    -4.832000000
O     4.093000000     2.063000000     2.571000000
H     3.561000000     2.723000000     3.016000000
H     3.899000000     1.248000000     3.033000000
O     3.484000000    -3.160000000    -3.092000000
H     2.800000000    -2.746000000    -3.619000000
H     4.292000000    -3.002000000    -3.581000000
O     2.133000000    -4.997000000     2.695000000
H     1.677000000    -5.685000000     2.209000000
H     2.453000000    -4.399000000     2.020000000
O     4.080000000     0.958000000     6.099000000
H     4.104000000     0.280000000     5.425000000
H     3.149000000     1.075000000     6.288000000
O    -0.233000000    -3.862000000    -2.248000000
H    -0.773000000    -3.397000000    -1.609000000
H     0.558000000    -4.100000000    -1.765000000
O    -1.316000000     3.699000000     4.175000000
H    -1.699000000     4.207000000     3.459000000
H    -1.794000000     2.870000000     4.162000000
O     1.104000000    -2.627000000    -4.533000000
H     0.440000000    -2.630000000    -5.222000000
H     0.684000000    -3.067000000    -3.794000000
O     1.983000000    -1.788000000     6.445000000
H     2.823000000    -2.090000000     6.790000000
H     1.879000000    -2.260000000     5.619000000
O    -2.850000000    -3.986000000    -2.866000000
H    -1.939000000    -4.276000000    -2.818000000
H    -3.017000000    -3.579000000    -2.016000000
O    -4.616000000     3.988000000     5.464000000
H    -4.316000000     3.638000000     6.302000000
H    -4.879000000     3.216000000     4.962000000
O     5.285000000     0.900000000    -1.254000000
H     5.731000000     0.409000000    -1.944000000
H     5.346000000     0.338000000    -0.482000000
O     2.230000000    -4.643000000    -1.159000000
H     2.894000000    -4.230000000    -1.712000000
H     2.732000000    -5.146000000    -0.518000000
O     2.533000000     0.330000000    -5.978000000
H     2.109000000    -0.309000000    -5.405000000
H     3.065000000     0.864000000    -5.389000000
O    -4.895000000     1.398000000     4.573000000
H    -5.626000000     0.798000000     4.716000000
H    -4.151000000     0.975000000     5.002000000
O    -2.580000000    -0.545000000    -6.006000000
H    -2.375000000     0.253000000    -5.519000000
H    -2.948000000    -1.137000000    -5.351000000
O     1.727000000    -2.376000000     3.929000000
H     1.289000000    -2.984000000     3.333000000
H     1.180000000    -1.591000000     3.915000000
O     3.689000000     2.974000000     0.009000000
H     4.100000000     2.183000000    -0.341000000
H     3.709000000     2.855000000     0.958000000
O    -3.823000000    -4.263000000     2.412000000
H    -3.779000000    -3.329000000     2.616000000
H    -4.482000000    -4.326000000     1.721000000
O    -0.081000000     1.298000000    -6.833000000
H     0.263000000     2.139000000    -6.533000000
H     0.650000000     0.689000000    -6.727000000
O    -2.305000000     4.666000000     1.931000000
H    -2.934000000     3.958000000     2.075000000
H    -2.589000000     5.076000000     1.114000000
O     4.027000000    -0.667000000     3.648000000
H     3.261000000    -1.232000000     3.751000000
H     4.773000000    -1.263000000     3.707000000
O    -4.620000000    -1.167000000     0.742000000
H    -5.465000000    -1.573000000     0.551000000
H    -4.688000000    -0.287000000     0.371000000
O    -2.569000000     0.354000000     5.815000000
H    -2.325000000    -0.527000000     6.099000000
H    -2.417000000     0.351000000     4.870000000
O     0.898000000    -2.975000000     0.562000000
H     0.875000000    -2.063000000     0.273000000
H     1.297000000    -3.447000000    -0.170000000
O    -1.196000000    -3.628000000     5.491000000
H    -1.173000000    -3.098000000     4.694000000
H    -0.815000000    -4.467000000     5.232000000
O    -5.130000000     1.124000000    -0.312000000
H    -4.882000000     2.033000000    -0.147000000
H    -5.000000000     1.008000000    -1.253000000
O     3.087000000     4.555000000    -2.772000000
H     3.078000000     4.358000000    -1.835000000
H     2.193000000     4.374000000    -3.063000000
O    -0.321000000     1.226000000     8.740000000
H     0.514000000     1.395000000     9.176000000
H    -0.103000000     1.194000000     7.808000000
O     0.539000000     3.877000000     6.233000000
H    -0.231000000     3.867000000     5.664000000
H     0.880000000     2.983000000     6.190000000
O    -0.796000000    -2.531000000    -7.243000000
H    -1.138000000    -1.657000000    -7.057000000
H    -0.529000000    -2.494000000    -8.161000000
O    -5.774000000    -2.544000000     5.531000000
H    -5.579000000    -1.898000000     6.209000000
H    -5.422000000    -2.160000000     4.727000000
O    -3.632000000     3.163000000    -1.821000000
H    -4.207000000     2.827000000    -2.509000000
H    -3.558000000     4.099000000    -2.007000000
O    -1.060000000    -3.452000000     2.605000000
H    -1.397000000    -4.238000000     2.175000000
H    -0.293000000    -3.206000000     2.088000000
O     2.866000000     3.766000000     4.229000000
H     3.417000000     4.513000000     4.465000000
H     2.244000000     3.689000000     4.952000000
O     0.986000000     0.903000000     5.996000000
H     0.753000000     0.798000000     5.074000000
H     1.315000000     0.044000000     6.259000000
O     0.371000000     5.304000000    -0.883000000
H    -0.538000000     5.459000000    -0.625000000
H     0.412000000     4.365000000    -1.063000000
O     0.735000000     3.978000000    -3.971000000
H    -0.066000000     4.031000000    -3.450000000
H     0.433000000     4.025000000    -4.879000000
O    -4.211000000    -1.654000000     3.347000000
H    -3.359000000    -1.224000000     3.422000000
H    -4.503000000    -1.453000000     2.458000000
O     3.603000000     1.650000000    -3.624000000
H     3.528000000     2.578000000    -3.403000000
H     3.647000000     1.204000000    -2.778000000
O     5.457000000    -0.920000000     0.770000000
H     5.636000000    -1.838000000     0.566000000
H     5.403000000    -0.893000000     1.725000000
O    -3.506000000     2.180000000     2.526000000
H    -3.045000000     1.345000000     2.610000000
H    -4.287000000     2.078000000     3.069000000
O    -0.032000000    -2.765000000     7.965000000
H    -0.508000000    -2.739000000     7.135000000
H     0.880000000    -2.915000000     7.713000000
O    -2.637000000     1.550000000    -4.500000000
H    -1.771000000     1.821000000    -4.197000000
H    -2.851000000     2.167000000    -5.200000000
O    -0.857000000     2.973000000    -1.714000000
H    -0.777000000     2.194000000    -1.164000000
H    -1.760000000     3.265000000    -1.585000000
O    -5.753000000     3.632000000     1.228000000
H    -5.075000000     3.406000000     1.864000000
H    -6.541000000     3.197000000     1.553000000
O    -2.417000000    -2.653000000    -0.517000000
H    -1.724000000    -2.139000000    -0.103000000
H    -3.141000000    -2.627000000     0.109000000
O    -5.220000000     1.283000000    -3.327000000
H    -5.652000000     0.523000000    -3.716000000
H    -4.308000000     1.211000000    -3.610000000
