144
-2841.45775
O    -2.857000000    -3.783000000     2.051000000
H    -2.827000000    -4.335000000     1.269000000
H    -3.329000000    -4.308000000     2.697000000
O     2.186000000     5.563000000     5.270000000
H     2.160000000     5.798000000     6.198000000
H     3.111000000     5.394000000     5.091000000
O    -1.665000000     1.334000000     3.955000000
H    -1.314000000     2.042000000     3.416000000
H    -2.604000000     1.333000000     3.767000000
O     3.720000000    -0.623000000     3.957000000
H     3.705000000    -1.409000000     3.412000000
H     2.819000000    -0.300000000     3.936000000
O     1.785000000    -5.908000000    -5.253000000
H     1.449000000    -5.024000000    -5.101000000
H     2.732000000    -5.794000000    -5.332000000
O     0.126000000    -6.756000000    -3.171000000
H    -0.202000000    -6.007000000    -3.668000000
H     0.960000000    -6.974000000    -3.588000000
O    -0.406000000     6.288000000    -1.593000000
H     0.461000000     6.334000000    -1.189000000
H    -0.996000000     6.073000000    -0.871000000
O     5.335000000    -3.864000000    -3.940000000
H     4.633000000    -3.303000000    -3.610000000
H     6.114000000    -3.581000000    -3.462000000
O    -1.002000000    -1.212000000    -4.883000000
H    -0.740000000    -0.291000000    -4.898000000
H    -0.502000000    -1.614000000    -5.593000000
O    -2.578000000    -5.099000000    -0.263000000
H    -3.009000000    -5.927000000    -0.476000000
H    -2.955000000    -4.468000000    -0.877000000
O     3.743000000    -2.836000000     2.477000000
H     3.956000000    -3.537000000     3.094000000
H     3.209000000    -3.261000000     1.807000000
O    -4.058000000    -1.794000000     3.763000000
H    -3.560000000    -2.016000000     2.977000000
H    -4.830000000    -1.333000000     3.435000000
O    -5.854000000     1.154000000    -3.499000000
H    -5.522000000     1.533000000    -4.313000000
H    -5.075000000     0.819000000    -3.055000000
O     0.240000000    -2.948000000     2.657000000
H    -0.639000000    -3.243000000     2.419000000
H     0.586000000    -2.556000000     1.856000000
O    -0.386000000     3.358000000     7.246000000
H    -0.497000000     3.617000000     6.331000000
H    -1.246000000     3.028000000     7.507000000
O    -0.637000000     4.495000000     4.630000000
H    -0.485000000     4.131000000     3.758000000
H    -0.238000000     5.365000000     4.598000000
O     4.438000000     6.213000000    -0.317000000
H     4.794000000     5.516000000     0.234000000
H     4.637000000     5.935000000    -1.212000000
O    -1.003000000    -4.536000000    -4.405000000
H    -1.681000000    -4.386000000    -3.746000000
H    -0.440000000    -3.764000000    -4.349000000
O     2.997000000     3.231000000    -0.446000000
H     3.011000000     2.911000000     0.456000000
H     2.076000000     3.190000000    -0.701000000
O     5.219000000    -0.279000000     1.232000000
H     5.563000000     0.613000000     1.274000000
H     4.623000000    -0.340000000     1.978000000
O     4.130000000    -5.048000000    -0.592000000
H     4.588000000    -5.510000000    -1.295000000
H     4.433000000    -5.473000000     0.210000000
O    -5.136000000     0.478000000     0.971000000
H    -5.141000000    -0.433000000     0.677000000
H    -5.625000000     0.468000000     1.793000000
O     5.927000000     2.685000000     1.326000000
H     5.232000000     3.319000000     1.503000000
H     6.141000000     2.816000000     0.402000000
O     1.627000000     2.092000000     4.716000000
H     0.716000000     2.387000000     4.734000000
H     1.975000000     2.439000000     3.894000000
O     5.013000000     1.681000000     4.996000000
H     4.585000000     0.831000000     4.889000000
H     5.842000000     1.592000000     4.525000000
O     1.403000000     5.425000000     2.649000000
H     1.753000000     5.451000000     3.539000000
H     0.929000000     4.595000000     2.602000000
O    -4.145000000     1.930000000     3.197000000
H    -5.051000000     1.764000000     3.456000000
H    -4.119000000     1.715000000     2.265000000
O     6.464000000    -2.825000000     0.541000000
H     6.244000000    -1.962000000     0.893000000
H     5.624000000    -3.191000000     0.264000000
O    -5.076000000    -2.431000000     0.946000000
H    -4.422000000    -2.996000000     1.359000000
H    -5.669000000    -3.036000000     0.502000000
O    -3.019000000     1.767000000    -2.981000000
H    -3.653000000     2.482000000    -2.935000000
H    -2.204000000     2.148000000    -2.653000000
O     1.325000000    -3.080000000    -4.844000000
H     1.280000000    -2.621000000    -5.684000000
H     2.161000000    -2.806000000    -4.466000000
O    -3.711000000    -4.071000000    -2.631000000
H    -4.440000000    -4.494000000    -3.084000000
H    -3.693000000    -3.181000000    -2.984000000
O     3.521000000    -1.490000000    -3.780000000
H     2.915000000    -0.821000000    -3.462000000
H     4.337000000    -1.016000000    -3.942000000
O     4.125000000     4.354000000     2.220000000
H     4.109000000     4.673000000     3.122000000
H     3.350000000     3.797000000     2.150000000
O    -3.751000000    -1.307000000    -3.666000000
H    -3.684000000    -0.782000000    -2.868000000
H    -2.913000000    -1.177000000    -4.109000000
O    -4.023000000    -1.545000000    -6.527000000
H    -4.064000000    -1.197000000    -5.636000000
H    -4.882000000    -1.348000000    -6.900000000
O     2.159000000    -3.851000000     0.591000000
H     1.304000000    -4.227000000     0.382000000
H     2.774000000    -4.332000000     0.037000000
O     5.413000000     3.029000000    -1.696000000
H     5.443000000     3.810000000    -2.249000000
H     4.480000000     2.851000000    -1.584000000
O     0.304000000    -5.747000000    -0.557000000
H    -0.648000000    -5.744000000    -0.463000000
H     0.460000000    -6.169000000    -1.402000000
O    -1.248000000     4.862000000     0.665000000
H    -1.021000000     4.199000000     1.317000000
H    -1.896000000     5.415000000     1.101000000
O     4.691000000     4.434000000     5.048000000
H     5.627000000     4.613000000     5.138000000
H     4.610000000     3.494000000     5.211000000
O     1.736000000     6.386000000     0.016000000
H     2.674000000     6.576000000     0.021000000
H     1.582000000     5.916000000     0.835000000
O    -0.907000000     3.486000000    -1.954000000
H    -1.223000000     3.335000000    -1.064000000
H    -0.644000000     4.407000000    -1.961000000
O     2.966000000     3.129000000     7.097000000
H     2.241000000     2.730000000     7.578000000
H     2.807000000     2.892000000     6.184000000
O     0.737000000    -0.815000000     4.544000000
H     0.324000000    -1.397000000     3.905000000
H     0.418000000     0.058000000     4.314000000
O     2.054000000    -7.291000000     0.918000000
H     1.403000000    -6.696000000     0.546000000
H     2.877000000    -6.804000000     0.874000000
O     5.723000000     0.388000000    -1.712000000
H     5.412000000     1.292000000    -1.656000000
H     5.203000000    -0.084000000    -1.061000000
O    -4.884000000     3.338000000    -0.045000000
H    -5.049000000     2.430000000     0.210000000
H    -4.830000000     3.813000000     0.785000000
