144
-2805.45224
O     1.039000000    -6.179000000    -6.090000000
H     0.108000000    -6.370000000    -5.977000000
H     1.143000000    -5.288000000    -5.757000000
O    -2.912000000     2.069000000     3.838000000
H    -3.006000000     2.300000000     4.762000000
H    -1.971000000     1.945000000     3.716000000
O    -3.668000000    -1.069000000     0.047000000
H    -3.816000000    -0.356000000     0.668000000
H    -2.725000000    -1.227000000     0.084000000
O     1.064000000    -5.163000000     1.508000000
H     0.192000000    -5.520000000     1.672000000
H     1.215000000    -4.555000000     2.231000000
O    -0.679000000     4.907000000     4.004000000
H    -0.715000000     4.015000000     3.659000000
H    -0.791000000     4.803000000     4.949000000
O     1.240000000    -3.796000000     3.746000000
H     0.798000000    -2.971000000     3.947000000
H     0.583000000    -4.469000000     3.925000000
O    -4.252000000     4.338000000     3.071000000
H    -3.934000000     4.688000000     2.238000000
H    -3.786000000     3.509000000     3.176000000
O     3.724000000    -0.445000000    -2.595000000
H     3.711000000    -0.262000000    -1.656000000
H     4.617000000    -0.233000000    -2.868000000
O    -1.711000000    -5.397000000     1.973000000
H    -1.467000000    -5.541000000     2.887000000
H    -2.400000000    -4.734000000     2.011000000
O     4.939000000     2.493000000    -1.434000000
H     5.146000000     2.651000000    -0.513000000
H     4.008000000     2.701000000    -1.510000000
O    -3.215000000    -2.764000000     2.938000000
H    -2.431000000    -2.272000000     3.178000000
H    -3.893000000    -2.097000000     2.830000000
O    -2.212000000     0.899000000     6.859000000
H    -1.966000000     1.386000000     7.645000000
H    -1.468000000     1.007000000     6.267000000
O    -0.889000000    -1.771000000     4.452000000
H    -1.227000000    -1.941000000     5.332000000
H    -0.797000000    -0.819000000     4.411000000
O    -1.439000000     7.850000000     2.842000000
H    -2.010000000     7.090000000     2.731000000
H    -0.585000000     7.556000000     2.526000000
O     4.200000000     5.829000000     2.718000000
H     3.989000000     6.463000000     2.032000000
H     3.349000000     5.527000000     3.035000000
O     3.187000000     0.632000000    -5.028000000
H     3.911000000     1.210000000    -5.269000000
H     3.321000000     0.456000000    -4.097000000
O     5.432000000    -5.258000000    -2.169000000
H     5.573000000    -5.772000000    -2.964000000
H     4.743000000    -4.636000000    -2.405000000
O     0.940000000     8.903000000     0.997000000
H     0.899000000     7.974000000     1.227000000
H     0.346000000     8.991000000     0.252000000
O    -1.145000000     0.270000000    -5.534000000
H    -1.012000000    -0.083000000    -6.413000000
H    -0.821000000     1.169000000    -5.585000000
O    -2.192000000     7.524000000    -0.310000000
H    -3.120000000     7.407000000    -0.514000000
H    -1.965000000     6.759000000     0.219000000
O     2.537000000     1.360000000     4.944000000
H     2.919000000     1.747000000     4.156000000
H     3.106000000     1.655000000     5.655000000
O     3.239000000    -0.176000000     0.089000000
H     2.356000000     0.077000000    -0.180000000
H     3.105000000    -0.912000000     0.686000000
O    -3.854000000    -3.313000000    -5.174000000
H    -3.601000000    -2.405000000    -5.008000000
H    -3.336000000    -3.570000000    -5.937000000
O     3.836000000     1.725000000     2.596000000
H     4.444000000     2.189000000     2.020000000
H     3.805000000     0.835000000     2.244000000
O     1.790000000    -3.319000000    -5.416000000
H     0.935000000    -3.535000000    -5.043000000
H     1.670000000    -2.453000000    -5.806000000
O    -2.531000000     4.732000000     0.286000000
H    -2.995000000     4.139000000    -0.305000000
H    -1.663000000     4.341000000     0.385000000
O     3.235000000    -2.291000000     2.086000000
H     2.648000000    -2.554000000     2.795000000
H     4.102000000    -2.259000000     2.492000000
O     1.957000000     4.051000000    -0.254000000
H     1.127000000     3.939000000     0.209000000
H     1.710000000     4.412000000    -1.106000000
O    -4.217000000     0.462000000     2.259000000
H    -3.798000000     0.992000000     2.937000000
H    -5.089000000     0.844000000     2.161000000
O    -1.549000000    -7.265000000    -1.891000000
H    -2.180000000    -6.693000000    -2.329000000
H    -2.066000000    -7.736000000    -1.238000000
O     0.485000000     6.347000000     1.968000000
H     0.352000000     5.601000000     1.384000000
H     0.312000000     6.001000000     2.844000000
O     1.502000000     4.548000000    -2.875000000
H     1.928000000     4.357000000    -3.710000000
H     0.709000000     4.013000000    -2.881000000
O    -3.689000000     2.907000000    -1.570000000
H    -4.364000000     3.098000000    -2.222000000
H    -4.073000000     2.225000000    -1.020000000
O    -0.311000000    -4.668000000    -3.610000000
H    -1.137000000    -4.411000000    -3.201000000
H     0.115000000    -5.227000000    -2.960000000
O     1.528000000    -1.621000000     7.770000000
H     1.512000000    -1.312000000     6.865000000
H     2.383000000    -2.039000000     7.866000000
O    -3.097000000    -5.155000000    -3.209000000
H    -3.774000000    -5.019000000    -2.545000000
H    -3.317000000    -4.535000000    -3.904000000
O    -0.119000000     0.931000000     5.062000000
H    -0.333000000     1.601000000     4.412000000
H     0.796000000     1.101000000     5.288000000
O     1.520000000    -6.016000000    -2.129000000
H     2.244000000    -5.413000000    -1.964000000
H     1.053000000    -6.064000000    -1.295000000
O     3.249000000     6.464000000     0.140000000
H     2.853000000     5.605000000     0.285000000
H     2.694000000     6.875000000    -0.524000000
O     1.639000000     4.262000000     6.039000000
H     1.744000000     5.212000000     6.085000000
H     1.699000000     4.060000000     5.105000000
O     2.034000000     3.901000000     3.202000000
H     1.170000000     3.568000000     2.960000000
H     2.648000000     3.260000000     2.843000000
O     3.591000000    -4.292000000     5.061000000
H     4.295000000    -4.186000000     4.422000000
H     2.788000000    -4.150000000     4.559000000
O    -1.216000000     3.616000000    -2.806000000
H    -1.527000000     4.220000000    -3.481000000
H    -1.911000000     2.961000000    -2.733000000
O    -1.542000000     3.823000000     6.686000000
H    -2.284000000     3.621000000     7.257000000
H    -0.774000000     3.544000000     7.185000000
O     3.254000000    -3.573000000    -2.855000000
H     3.328000000    -2.644000000    -2.637000000
H     2.576000000    -3.608000000    -3.530000000
O    -3.026000000    -0.665000000    -3.778000000
H    -2.748000000    -0.446000000    -2.889000000
H    -2.465000000    -0.133000000    -4.342000000
O    -3.772000000     6.084000000     5.476000000
H    -3.136000000     5.690000000     6.073000000
H    -3.615000000     5.650000000     4.638000000
O     3.690000000    -5.182000000     1.336000000
H     3.803000000    -4.233000000     1.284000000
H     2.744000000    -5.306000000     1.418000000
