144
-2827.93570
O     4.778000000     3.882000000     1.975000000
H     4.053000000     3.257000000     1.979000000
H     4.432000000     4.648000000     1.516000000
O    -1.374000000    -2.765000000     1.983000000
H    -1.796000000    -1.991000000     1.610000000
H    -1.648000000    -2.769000000     2.900000000
O    -4.821000000    -1.103000000    -1.077000000
H    -5.713000000    -1.003000000    -1.410000000
H    -4.527000000    -1.942000000    -1.430000000
O     3.866000000    -6.252000000    -1.191000000
H     3.056000000    -5.855000000    -0.868000000
H     3.613000000    -7.141000000    -1.439000000
O     1.307000000    -3.749000000     2.142000000
H     0.558000000    -3.166000000     2.016000000
H     1.160000000    -4.146000000     3.000000000
O     3.046000000     2.721000000    -1.668000000
H     3.997000000     2.736000000    -1.557000000
H     2.738000000     3.491000000    -1.191000000
O     4.911000000     3.078000000     5.850000000
H     5.246000000     3.389000000     5.009000000
H     3.962000000     3.188000000     5.787000000
O    -3.929000000    -3.619000000    -2.148000000
H    -2.983000000    -3.490000000    -2.210000000
H    -4.121000000    -4.301000000    -2.791000000
O     2.317000000     3.076000000     5.739000000
H     1.875000000     2.577000000     6.427000000
H     1.618000000     3.579000000     5.322000000
O     1.645000000    -5.019000000    -0.142000000
H     0.803000000    -5.472000000    -0.182000000
H     1.750000000    -4.788000000     0.781000000
O    -3.921000000    -0.482000000     1.341000000
H    -3.287000000     0.197000000     1.108000000
H    -4.147000000    -0.894000000     0.507000000
O     1.611000000     7.889000000     0.339000000
H     1.464000000     8.830000000     0.236000000
H     0.782000000     7.554000000     0.682000000
O     0.680000000     4.455000000     4.308000000
H    -0.073000000     4.940000000     3.969000000
H     1.019000000     3.979000000     3.549000000
O     7.072000000     3.116000000     3.234000000
H     6.278000000     3.443000000     2.812000000
H     7.621000000     2.814000000     2.511000000
O     2.292000000    -2.133000000    -3.745000000
H     1.822000000    -1.306000000    -3.634000000
H     2.709000000    -2.287000000    -2.897000000
O    -3.823000000     3.178000000    -2.819000000
H    -3.851000000     2.259000000    -3.087000000
H    -4.393000000     3.627000000    -3.443000000
O     3.818000000     0.685000000    -3.434000000
H     3.389000000     1.292000000    -2.831000000
H     3.115000000     0.382000000    -4.010000000
O     5.623000000     2.417000000    -0.331000000
H     6.368000000     2.495000000    -0.928000000
H     5.559000000     3.276000000     0.086000000
O     3.693000000    -1.789000000    -1.148000000
H     3.997000000    -2.203000000    -0.341000000
H     3.893000000    -0.860000000    -1.031000000
O     7.270000000    -0.238000000     2.931000000
H     7.954000000     0.428000000     2.993000000
H     6.478000000     0.252000000     2.710000000
O    -5.844000000    -1.701000000     2.885000000
H    -6.408000000    -1.640000000     2.114000000
H    -5.016000000    -1.310000000     2.607000000
O    -3.369000000     5.729000000     2.501000000
H    -3.987000000     5.220000000     1.976000000
H    -2.525000000     5.603000000     2.067000000
O    -0.858000000     5.087000000     1.345000000
H    -1.373000000     4.918000000     0.557000000
H    -0.457000000     4.243000000     1.555000000
O     6.670000000    -0.348000000    -0.186000000
H     6.744000000    -0.846000000     0.629000000
H     6.793000000     0.564000000     0.079000000
O     2.297000000     4.738000000    -0.041000000
H     1.782000000     4.253000000     0.604000000
H     2.095000000     5.657000000     0.133000000
O    -3.583000000     0.485000000    -3.315000000
H    -3.146000000    -0.075000000    -3.957000000
H    -4.031000000    -0.125000000    -2.729000000
O    -0.804000000     2.051000000     4.292000000
H    -1.406000000     2.068000000     3.548000000
H    -0.415000000     2.925000000     4.305000000
O     2.915000000     6.692000000     2.235000000
H     2.574000000     7.213000000     1.507000000
H     2.568000000     7.120000000     3.018000000
O    -4.598000000    -4.848000000     0.406000000
H    -4.344000000    -4.624000000    -0.490000000
H    -5.456000000    -5.263000000     0.314000000
O     0.064000000     2.732000000    -2.562000000
H     0.548000000     2.549000000    -1.757000000
H     0.740000000     2.820000000    -3.234000000
O    -2.685000000     2.570000000     2.202000000
H    -3.346000000     2.341000000     2.856000000
H    -3.190000000     2.874000000     1.448000000
O    -2.127000000    -0.956000000    -5.083000000
H    -1.607000000    -0.311000000    -4.602000000
H    -1.504000000    -1.363000000    -5.685000000
O     2.746000000    -4.933000000    -4.481000000
H     3.324000000    -4.754000000    -3.739000000
H     2.300000000    -4.101000000    -4.642000000
O    -1.781000000    -4.089000000    -5.554000000
H    -2.390000000    -3.456000000    -5.935000000
H    -1.505000000    -4.630000000    -6.294000000
O     5.026000000     0.805000000     1.856000000
H     5.207000000     1.221000000     1.014000000
H     4.144000000     1.099000000     2.085000000
O    -2.303000000    -6.866000000    -1.248000000
H    -1.981000000    -6.220000000    -0.619000000
H    -2.463000000    -6.363000000    -2.047000000
O    -2.051000000    -5.508000000    -3.399000000
H    -1.269000000    -6.033000000    -3.568000000
H    -2.105000000    -4.912000000    -4.146000000
O     0.281000000    -0.594000000     4.305000000
H     1.213000000    -0.384000000     4.245000000
H    -0.158000000     0.135000000     3.867000000
O     4.009000000    -3.026000000     1.619000000
H     4.347000000    -3.881000000     1.888000000
H     3.058000000    -3.119000000     1.666000000
O     6.347000000    -0.034000000    -2.871000000
H     6.079000000    -0.368000000    -2.015000000
H     5.538000000     0.293000000    -3.265000000
O     4.668000000    -4.126000000    -2.785000000
H     4.579000000    -3.336000000    -2.253000000
H     4.343000000    -4.831000000    -2.225000000
O    -0.684000000     1.497000000    -5.281000000
H    -0.632000000     1.202000000    -6.190000000
H    -1.253000000     2.266000000    -5.311000000
O     2.803000000     0.674000000     4.355000000
H     2.554000000     1.200000000     3.595000000
H     2.805000000     1.293000000     5.085000000
O    -1.950000000    -5.406000000     1.254000000
H    -1.658000000    -4.498000000     1.335000000
H    -2.904000000    -5.346000000     1.194000000
O    -1.967000000     3.815000000    -0.720000000
H    -2.781000000     3.494000000    -1.109000000
H    -1.304000000     3.664000000    -1.393000000
O     4.246000000    -1.754000000     3.987000000
H     3.563000000    -1.093000000     4.101000000
H     4.338000000    -1.843000000     3.038000000
O     0.801000000     0.058000000    -3.282000000
H     0.267000000     0.170000000    -2.496000000
H     0.591000000     0.819000000    -3.825000000
O    -2.002000000     6.000000000     4.886000000
H    -2.592000000     5.474000000     5.426000000
H    -2.307000000     5.856000000     3.990000000
