144
-2823.17089
O    -1.675000000    -3.497000000     4.824000000
H    -2.148000000    -4.322000000     4.930000000
H    -1.477000000    -3.217000000     5.718000000
O    -3.258000000    -3.579000000     2.524000000
H    -3.906000000    -4.236000000     2.777000000
H    -2.732000000    -3.445000000     3.313000000
O     0.765000000     4.421000000     5.495000000
H     0.831000000     4.618000000     4.561000000
H     0.478000000     5.243000000     5.893000000
O    -2.350000000     4.434000000     3.970000000
H    -2.081000000     3.894000000     3.227000000
H    -2.587000000     3.804000000     4.651000000
O    -4.809000000     3.824000000     0.903000000
H    -5.760000000     3.793000000     1.007000000
H    -4.477000000     3.183000000     1.533000000
O     0.821000000     4.414000000     2.783000000
H     1.311000000     4.699000000     2.012000000
H     0.155000000     3.819000000     2.437000000
O    -4.285000000     1.507000000     2.211000000
H    -3.446000000     1.542000000     2.670000000
H    -4.428000000     0.575000000     2.044000000
O    -1.415000000    -6.005000000     2.775000000
H    -1.373000000    -5.058000000     2.913000000
H    -1.986000000    -6.323000000     3.474000000
O     3.126000000     0.218000000    -7.218000000
H     2.530000000    -0.068000000    -6.526000000
H     3.789000000     0.738000000    -6.763000000
O    -4.823000000    -0.856000000    -1.104000000
H    -5.419000000    -0.138000000    -1.315000000
H    -3.965000000    -0.549000000    -1.396000000
O    -0.204000000     2.039000000    -4.373000000
H     0.607000000     2.457000000    -4.663000000
H    -0.740000000     2.759000000    -4.041000000
O     1.611000000     3.686000000    -5.650000000
H     2.112000000     3.567000000    -6.456000000
H     2.266000000     3.653000000    -4.953000000
O     2.212000000    -4.243000000     0.862000000
H     1.772000000    -3.418000000     1.067000000
H     1.611000000    -4.919000000     1.178000000
O     4.067000000    -1.095000000    -4.630000000
H     4.146000000    -0.917000000    -3.693000000
H     3.426000000    -1.803000000    -4.686000000
O     1.534000000    -5.797000000    -3.824000000
H     2.106000000    -5.987000000    -3.080000000
H     0.667000000    -6.085000000    -3.539000000
O     2.199000000     4.280000000     0.603000000
H     1.693000000     4.198000000    -0.205000000
H     2.898000000     4.898000000     0.387000000
O    -1.226000000     6.158000000     2.242000000
H    -1.836000000     5.681000000     1.679000000
H    -1.337000000     5.761000000     3.106000000
O    -5.458000000    -1.760000000     5.225000000
H    -6.066000000    -1.957000000     4.513000000
H    -4.759000000    -1.254000000     4.809000000
O    -1.723000000    -3.886000000    -2.817000000
H    -1.493000000    -4.811000000    -2.909000000
H    -2.183000000    -3.836000000    -1.980000000
O    -0.301000000     7.170000000    -0.032000000
H    -0.600000000     6.938000000     0.847000000
H    -0.098000000     6.331000000    -0.445000000
O     5.287000000    -3.708000000    -2.229000000
H     4.931000000    -2.841000000    -2.428000000
H     6.080000000    -3.531000000    -1.724000000
O     2.360000000    -1.019000000     2.456000000
H     1.835000000    -0.285000000     2.139000000
H     1.717000000    -1.656000000     2.769000000
O    -0.873000000    -6.835000000    -0.677000000
H    -1.659000000    -6.717000000    -0.143000000
H    -0.205000000    -6.307000000    -0.241000000
O     2.353000000    -3.151000000    -4.482000000
H     1.709000000    -2.447000000    -4.559000000
H     1.832000000    -3.934000000    -4.304000000
O    -2.270000000     4.540000000    -0.328000000
H    -3.218000000     4.659000000    -0.263000000
H    -2.059000000     3.916000000     0.366000000
O     5.056000000    -3.321000000     1.365000000
H     4.140000000    -3.564000000     1.225000000
H     5.106000000    -3.106000000     2.297000000
O     4.606000000     3.811000000    -1.513000000
H     5.490000000     3.911000000    -1.864000000
H     4.547000000     4.470000000    -0.821000000
O    -4.752000000    -1.339000000     1.687000000
H    -4.118000000    -1.984000000     2.001000000
H    -4.543000000    -1.230000000     0.759000000
O    -3.232000000    -3.893000000    -0.264000000
H    -3.540000000    -4.799000000    -0.233000000
H    -3.450000000    -3.537000000     0.598000000
O     2.909000000     2.101000000     2.202000000
H     2.803000000     2.816000000     1.574000000
H     2.255000000     2.277000000     2.878000000
O     4.527000000    -0.213000000     0.906000000
H     4.160000000     0.671000000     0.952000000
H     3.911000000    -0.753000000     1.400000000
O    -1.755000000     3.856000000    -2.870000000
H    -2.469000000     3.405000000    -3.320000000
H    -2.152000000     4.188000000    -2.064000000
O     3.908000000    -5.632000000    -1.064000000
H     3.259000000    -5.109000000    -0.594000000
H     4.395000000    -4.995000000    -1.587000000
O     3.621000000     1.655000000    -3.861000000
H     3.132000000     0.900000000    -4.189000000
H     4.089000000     1.323000000    -3.095000000
O     2.829000000     4.776000000    -3.282000000
H     3.509000000     4.410000000    -2.716000000
H     3.097000000     5.685000000    -3.420000000
O    -4.690000000     2.252000000    -1.431000000
H    -4.508000000     2.858000000    -0.713000000
H    -3.860000000     1.798000000    -1.577000000
O    -1.062000000    -2.101000000    -4.843000000
H    -1.903000000    -1.645000000    -4.815000000
H    -1.208000000    -2.903000000    -4.340000000
O    -2.929000000    -0.833000000     4.292000000
H    -2.283000000    -0.217000000     3.947000000
H    -2.408000000    -1.556000000     4.641000000
O     4.686000000    -0.697000000    -1.965000000
H     5.597000000    -0.409000000    -1.898000000
H     4.376000000    -0.721000000    -1.060000000
O     0.628000000     4.737000000    -1.572000000
H    -0.214000000     4.467000000    -1.939000000
H     1.250000000     4.625000000    -2.292000000
O    -0.793000000     0.133000000     6.735000000
H     0.056000000    -0.275000000     6.904000000
H    -1.379000000    -0.601000000     6.547000000
O    -2.488000000     2.297000000     6.136000000
H    -1.912000000     2.951000000     6.532000000
H    -2.000000000     1.476000000     6.204000000
O     1.209000000    -0.374000000    -5.068000000
H     0.833000000     0.437000000    -4.726000000
H     0.463000000    -0.966000000    -5.154000000
O     1.045000000     1.762000000     4.423000000
H     0.161000000     1.495000000     4.167000000
H     0.933000000     2.638000000     4.790000000
O    -4.543000000     6.403000000     2.157000000
H    -3.876000000     7.079000000     2.040000000
H    -4.149000000     5.611000000     1.790000000
O    -2.472000000     0.678000000    -1.991000000
H    -1.674000000     0.540000000    -1.481000000
H    -2.216000000     1.299000000    -2.673000000
O    -5.004000000     2.190000000     4.954000000
H    -4.786000000     1.736000000     4.140000000
H    -4.156000000     2.425000000     5.331000000
O     0.703000000    -3.023000000     3.186000000
H    -0.072000000    -3.150000000     3.734000000
H     1.369000000    -3.586000000     3.580000000
