144
-2804.16010
O    -3.661000000    -4.850000000    -1.574000000
H    -2.796000000    -5.256000000    -1.519000000
H    -4.176000000    -5.293000000    -0.899000000
O    -1.672000000    -5.476000000    -5.883000000
H    -2.532000000    -5.592000000    -6.286000000
H    -1.739000000    -4.647000000    -5.410000000
O     3.138000000     4.141000000     4.426000000
H     3.286000000     5.084000000     4.504000000
H     2.997000000     3.998000000     3.491000000
O    -3.713000000     0.645000000    -2.081000000
H    -3.935000000    -0.151000000    -2.563000000
H    -4.263000000     0.612000000    -1.298000000
O    -2.163000000     5.739000000     3.703000000
H    -2.494000000     6.042000000     4.549000000
H    -2.431000000     6.417000000     3.084000000
O     6.210000000    -3.250000000     1.853000000
H     5.449000000    -2.871000000     1.413000000
H     5.993000000    -4.177000000     1.951000000
O    -0.811000000     3.053000000     4.837000000
H    -1.537000000     2.526000000     5.172000000
H    -1.230000000     3.720000000     4.293000000
O     0.321000000    -3.466000000    -4.184000000
H     0.835000000    -2.790000000    -3.742000000
H    -0.488000000    -3.023000000    -4.439000000
O    -4.981000000    -2.464000000    -1.047000000
H    -4.367000000    -3.134000000    -1.349000000
H    -5.709000000    -2.510000000    -1.666000000
O    -0.041000000    -5.537000000     1.136000000
H    -0.390000000    -4.678000000     1.373000000
H    -0.284000000    -5.649000000     0.216000000
O     1.102000000     1.063000000     6.163000000
H     0.507000000     1.640000000     5.683000000
H     0.599000000     0.784000000     6.928000000
O    -0.193000000     5.618000000     6.470000000
H    -0.233000000     4.900000000     5.838000000
H     0.655000000     5.512000000     6.900000000
O     0.464000000     5.988000000     3.476000000
H    -0.442000000     5.894000000     3.182000000
H     0.790000000     5.090000000     3.542000000
O     6.275000000    -1.995000000    -4.923000000
H     5.492000000    -2.419000000    -4.572000000
H     6.214000000    -2.125000000    -5.870000000
O    -1.724000000     1.380000000    -3.936000000
H    -1.332000000     1.724000000    -3.134000000
H    -2.386000000     0.759000000    -3.632000000
O    -0.202000000    -5.341000000    -1.917000000
H     0.059000000    -4.692000000    -2.570000000
H    -1.006000000    -5.724000000    -2.268000000
O    -6.631000000     1.833000000    -2.122000000
H    -5.889000000     1.284000000    -2.375000000
H    -6.523000000     2.634000000    -2.635000000
O    -4.419000000    -1.140000000    -4.137000000
H    -5.143000000    -1.730000000    -3.929000000
H    -4.543000000    -0.924000000    -5.061000000
O    -5.417000000    -0.140000000     0.376000000
H    -5.126000000    -0.970000000    -0.003000000
H    -5.774000000    -0.380000000     1.231000000
O    -4.821000000     2.467000000     4.344000000
H    -5.255000000     3.078000000     3.749000000
H    -4.626000000     2.989000000     5.123000000
O     3.103000000    -0.640000000     5.509000000
H     2.415000000     0.004000000     5.339000000
H     3.641000000    -0.241000000     6.192000000
O    -2.476000000     1.059000000     5.396000000
H    -2.723000000     1.000000000     6.318000000
H    -3.168000000     1.586000000     4.995000000
O    -0.549000000     2.651000000    -1.785000000
H    -0.102000000     2.045000000    -1.193000000
H    -0.093000000     3.484000000    -1.663000000
O     4.422000000    -5.354000000     0.164000000
H     5.120000000    -4.917000000    -0.325000000
H     4.533000000    -6.282000000    -0.039000000
O    -3.185000000     3.421000000    -1.600000000
H    -2.293000000     3.130000000    -1.413000000
H    -3.736000000     2.679000000    -1.351000000
O     5.709000000    -3.414000000    -1.611000000
H     4.950000000    -3.284000000    -2.179000000
H     6.112000000    -2.548000000    -1.548000000
O     0.576000000     5.162000000    -0.877000000
H     0.929000000     5.629000000    -0.120000000
H     0.984000000     5.586000000    -1.632000000
O    -3.718000000    -1.418000000     4.402000000
H    -3.299000000    -2.279000000     4.397000000
H    -2.991000000    -0.798000000     4.459000000
O    -2.000000000    -2.425000000    -4.905000000
H    -2.691000000    -1.883000000    -4.523000000
H    -2.280000000    -2.565000000    -5.810000000
O    -1.570000000    -4.078000000     4.514000000
H    -1.472000000    -3.797000000     3.604000000
H    -0.699000000    -3.967000000     4.894000000
O     2.923000000     3.618000000     1.512000000
H     2.385000000     3.587000000     0.720000000
H     3.317000000     2.747000000     1.567000000
O    -0.790000000    -2.848000000     1.219000000
H    -0.581000000    -2.314000000     0.453000000
H    -1.704000000    -2.641000000     1.413000000
O    -3.500000000    -2.426000000     1.779000000
H    -3.713000000    -1.800000000     2.471000000
H    -4.223000000    -3.053000000     1.792000000
O     6.618000000     3.437000000    -2.587000000
H     5.947000000     3.356000000    -1.909000000
H     6.767000000     2.539000000    -2.884000000
O     4.711000000     0.203000000    -6.146000000
H     4.670000000     0.120000000    -5.194000000
H     5.072000000     1.077000000    -6.295000000
O    -7.872000000     2.320000000     0.631000000
H    -7.268000000     2.765000000     1.225000000
H    -7.375000000     2.212000000    -0.180000000
O     3.109000000    -1.768000000    -7.162000000
H     2.229000000    -1.722000000    -6.786000000
H     3.615000000    -1.126000000    -6.665000000
O     4.039000000    -3.137000000    -3.780000000
H     3.306000000    -2.591000000    -3.497000000
H     3.644000000    -3.988000000    -3.971000000
O     4.292000000     1.975000000    -1.347000000
H     4.710000000     1.426000000    -0.683000000
H     3.710000000     1.379000000    -1.818000000
O     5.381000000    -0.039000000     0.407000000
H     5.349000000    -0.811000000    -0.159000000
H     5.034000000    -0.343000000     1.246000000
O     5.190000000    -0.055000000    -3.303000000
H     4.599000000    -0.525000000    -2.715000000
H     5.613000000    -0.742000000    -3.818000000
O     1.570000000    -2.534000000     2.459000000
H     0.695000000    -2.346000000     2.119000000
H     2.119000000    -2.608000000     1.678000000
O     3.744000000    -2.761000000     0.426000000
H     3.466000000    -2.361000000    -0.397000000
H     3.863000000    -3.687000000     0.215000000
O     4.394000000    -1.184000000     3.113000000
H     3.898000000    -1.827000000     2.605000000
H     3.900000000    -1.089000000     3.927000000
O     0.514000000     0.579000000    -5.650000000
H     1.051000000     0.090000000    -5.027000000
H    -0.272000000     0.812000000    -5.156000000
O    -8.193000000    -0.539000000     1.003000000
H    -7.691000000     0.276000000     1.014000000
H    -8.836000000    -0.433000000     1.705000000
O     2.563000000    -5.482000000    -3.820000000
H     1.715000000    -5.057000000    -3.948000000
H     2.439000000    -6.038000000    -3.051000000
O    -5.870000000     0.204000000     3.523000000
H    -5.621000000     1.114000000     3.687000000
H    -5.043000000    -0.277000000     3.539000000
