144
-2795.26062
O     2.740000000    -1.344000000     3.167000000
H     3.000000000    -0.426000000     3.086000000
H     2.735000000    -1.672000000     2.268000000
O    -3.394000000    -3.993000000     0.798000000
H    -3.319000000    -3.570000000    -0.058000000
H    -3.293000000    -3.279000000     1.428000000
O    -4.475000000     1.117000000    -2.178000000
H    -4.709000000     1.909000000    -1.695000000
H    -3.520000000     1.080000000    -2.130000000
O     4.705000000    -1.356000000    -0.978000000
H     5.094000000    -2.153000000    -1.339000000
H     4.544000000    -0.801000000    -1.740000000
O     0.128000000     7.398000000     4.194000000
H    -0.456000000     7.297000000     3.443000000
H     0.190000000     6.519000000     4.569000000
O     2.546000000     1.003000000     4.294000000
H     3.273000000     0.990000000     4.917000000
H     1.942000000     0.335000000     4.617000000
O     0.191000000     4.711000000     4.779000000
H     0.112000000     4.176000000     3.990000000
H     0.932000000     4.331000000     5.252000000
O    -3.375000000     0.427000000     5.087000000
H    -3.541000000     1.362000000     5.206000000
H    -2.657000000     0.389000000     4.455000000
O     2.477000000     3.164000000     2.659000000
H     2.682000000     2.446000000     3.258000000
H     1.545000000     3.056000000     2.467000000
O    -1.904000000     5.097000000     2.469000000
H    -2.656000000     4.878000000     3.019000000
H    -1.238000000     4.451000000     2.705000000
O    -4.070000000     2.149000000     1.559000000
H    -3.271000000     1.952000000     2.048000000
H    -4.779000000     1.973000000     2.178000000
O     1.820000000     5.926000000     2.414000000
H     1.258000000     5.152000000     2.439000000
H     2.699000000     5.589000000     2.586000000
O    -1.484000000     1.958000000     7.774000000
H    -0.951000000     1.173000000     7.904000000
H    -1.275000000     2.245000000     6.885000000
O    -0.404000000     3.353000000    -2.901000000
H    -0.247000000     4.014000000    -3.575000000
H    -1.023000000     3.766000000    -2.299000000
O    -5.648000000     2.200000000     4.314000000
H    -5.862000000     1.296000000     4.543000000
H    -5.234000000     2.555000000     5.101000000
O    -3.116000000    -3.265000000    -1.679000000
H    -3.991000000    -3.088000000    -2.027000000
H    -2.520000000    -2.941000000    -2.354000000
O     0.720000000    -0.899000000     4.716000000
H     0.919000000    -1.326000000     5.549000000
H     1.304000000    -1.320000000     4.085000000
O    -1.949000000     7.761000000     1.799000000
H    -1.867000000     6.832000000     2.016000000
H    -2.352000000     7.770000000     0.931000000
O     3.521000000    -4.603000000     2.056000000
H     3.236000000    -3.755000000     1.715000000
H     2.708000000    -5.082000000     2.218000000
O     2.802000000    -2.322000000     0.728000000
H     1.946000000    -2.447000000     0.317000000
H     3.418000000    -2.302000000    -0.004000000
O     2.656000000    -4.629000000    -1.463000000
H     2.391000000    -4.476000000    -2.370000000
H     3.573000000    -4.355000000    -1.433000000
O    -0.139000000    -1.699000000    -5.644000000
H    -0.343000000    -1.864000000    -6.565000000
H     0.737000000    -2.067000000    -5.524000000
O     5.270000000    -2.445000000    -4.379000000
H     6.220000000    -2.537000000    -4.309000000
H     5.125000000    -1.501000000    -4.449000000
O     4.013000000     0.209000000    -3.009000000
H     4.780000000     0.579000000    -3.445000000
H     3.297000000     0.801000000    -3.238000000
O     2.606000000    -2.181000000    -5.208000000
H     2.639000000    -2.313000000    -6.155000000
H     3.430000000    -2.547000000    -4.886000000
O     5.220000000    -4.083000000    -1.483000000
H     5.906000000    -4.355000000    -0.873000000
H     5.227000000    -4.753000000    -2.166000000
O    -6.206000000    -0.889000000     2.606000000
H    -5.358000000    -1.317000000     2.720000000
H    -6.478000000    -0.656000000     3.494000000
O    -3.193000000    -3.453000000    -5.403000000
H    -2.803000000    -3.034000000    -4.636000000
H    -4.089000000    -3.118000000    -5.430000000
O     0.683000000    -6.827000000    -0.821000000
H     1.460000000    -7.353000000    -1.008000000
H     0.955000000    -5.926000000    -0.997000000
O    -2.165000000     5.910000000     6.023000000
H    -1.497000000     5.485000000     5.486000000
H    -1.709000000     6.641000000     6.439000000
O    -4.165000000     3.123000000     6.472000000
H    -3.329000000     3.579000000     6.575000000
H    -4.823000000     3.817000000     6.506000000
O    -1.081000000    -3.092000000     3.509000000
H    -0.690000000    -2.320000000     3.917000000
H    -0.427000000    -3.387000000     2.876000000
O    -4.022000000    -2.558000000     3.160000000
H    -3.282000000    -2.356000000     3.734000000
H    -4.258000000    -3.459000000     3.383000000
O    -0.181000000     2.017000000     5.202000000
H     0.401000000     1.257000000     5.222000000
H    -0.688000000     1.909000000     4.397000000
O     3.967000000     0.863000000    -6.453000000
H     3.453000000     1.431000000    -7.027000000
H     3.413000000     0.094000000    -6.320000000
O     2.392000000     2.600000000    -3.408000000
H     1.612000000     2.481000000    -2.865000000
H     2.399000000     3.535000000    -3.615000000
O    -1.815000000    -1.762000000    -3.616000000
H    -1.672000000    -0.972000000    -3.095000000
H    -1.153000000    -1.718000000    -4.305000000
O     4.796000000     4.568000000     2.974000000
H     3.985000000     4.157000000     2.672000000
H     5.317000000     4.682000000     2.179000000
O    -0.302000000     5.088000000     0.195000000
H    -0.209000000     4.230000000    -0.218000000
H    -0.951000000     4.953000000     0.885000000
O     2.517000000     5.338000000    -0.619000000
H     2.635000000     6.265000000    -0.411000000
H     1.567000000     5.216000000    -0.635000000
O    -2.977000000     3.707000000    -0.919000000
H    -3.344000000     3.073000000    -0.304000000
H    -3.322000000     4.551000000    -0.628000000
O     1.250000000    -4.207000000    -3.736000000
H     1.490000000    -3.280000000    -3.750000000
H     0.702000000    -4.324000000    -4.512000000
O    -2.065000000     1.016000000    -5.960000000
H    -1.238000000     1.494000000    -5.898000000
H    -2.093000000     0.482000000    -5.166000000
O     4.478000000     1.571000000    -0.061000000
H     3.819000000     1.757000000     0.608000000
H     4.452000000     0.619000000    -0.165000000
O    -1.563000000     0.894000000    -2.149000000
H    -1.077000000     0.762000000    -1.335000000
H    -1.024000000     1.503000000    -2.654000000
O    -5.911000000     2.552000000    -0.348000000
H    -5.203000000     2.539000000     0.296000000
H    -6.642000000     2.119000000     0.092000000
O    -3.433000000    -6.078000000    -3.215000000
H    -3.176000000    -5.156000000    -3.222000000
H    -3.211000000    -6.382000000    -2.336000000
O     4.768000000     3.137000000    -2.043000000
H     4.731000000     2.478000000    -1.351000000
H     4.064000000     2.894000000    -2.644000000
