144
-2795.55725
O    -3.455000000    -4.560000000    -2.140000000
H    -3.514000000    -5.166000000    -2.879000000
H    -3.814000000    -5.050000000    -1.400000000
O    -3.805000000     2.715000000     4.108000000
H    -4.522000000     3.349000000     4.101000000
H    -3.717000000     2.443000000     3.194000000
O    -4.363000000     6.852000000     2.394000000
H    -4.288000000     7.547000000     1.740000000
H    -4.051000000     6.066000000     1.945000000
O    -2.204000000    -3.455000000     3.626000000
H    -2.234000000    -4.104000000     4.330000000
H    -1.803000000    -3.918000000     2.891000000
O    -3.203000000     4.676000000     0.928000000
H    -2.592000000     4.055000000     1.324000000
H    -3.568000000     4.208000000     0.177000000
O    -3.574000000    -1.071000000     5.283000000
H    -4.023000000    -1.401000000     4.505000000
H    -2.812000000    -0.604000000     4.939000000
O    -1.904000000     4.642000000     4.098000000
H    -2.607000000     4.079000000     4.422000000
H    -1.835000000     4.429000000     3.168000000
O     2.420000000     5.030000000     0.229000000
H     1.790000000     5.102000000    -0.488000000
H     1.885000000     5.064000000     1.022000000
O    -2.517000000     7.076000000    -0.380000000
H    -2.661000000     6.178000000    -0.081000000
H    -2.238000000     6.984000000    -1.291000000
O     1.777000000     0.642000000    -4.712000000
H     2.034000000     1.236000000    -4.006000000
H     1.432000000     1.217000000    -5.395000000
O    -4.328000000    -1.888000000     2.566000000
H    -3.582000000    -2.480000000     2.664000000
H    -5.082000000    -2.468000000     2.463000000
O     3.412000000    -1.099000000    -5.951000000
H     4.192000000    -1.140000000    -5.398000000
H     2.799000000    -0.553000000    -5.459000000
O     3.934000000     2.710000000    -1.079000000
H     3.969000000     2.983000000    -0.162000000
H     3.920000000     3.530000000    -1.573000000
O    -3.067000000     1.693000000     6.831000000
H    -3.793000000     1.071000000     6.884000000
H    -3.115000000     2.040000000     5.940000000
O    -1.795000000    -2.624000000    -3.382000000
H    -2.310000000    -3.363000000    -3.060000000
H    -0.888000000    -2.861000000    -3.189000000
O    -1.079000000     0.316000000     4.473000000
H    -0.315000000     0.125000000     5.017000000
H    -1.204000000     1.261000000     4.558000000
O     0.704000000     4.960000000     2.436000000
H     0.027000000     4.296000000     2.307000000
H     0.348000000     5.537000000     3.111000000
O     3.942000000     3.372000000     1.870000000
H     3.168000000     3.625000000     1.366000000
H     3.594000000     3.064000000     2.706000000
O     0.417000000    -4.871000000     0.246000000
H     0.744000000    -4.554000000     1.088000000
H     1.155000000    -4.762000000    -0.354000000
O     3.197000000    -3.638000000    -4.697000000
H     3.136000000    -4.469000000    -5.168000000
H     2.965000000    -2.976000000    -5.347000000
O    -6.731000000     0.600000000    -0.686000000
H    -7.090000000     1.036000000     0.086000000
H    -5.801000000     0.828000000    -0.679000000
O    -7.197000000    -1.924000000     0.628000000
H    -7.549000000    -1.838000000     1.514000000
H    -6.596000000    -1.185000000     0.536000000
O     0.126000000    -7.643000000    -0.004000000
H     0.219000000    -6.695000000     0.097000000
H     0.731000000    -8.013000000     0.638000000
O     5.430000000    -3.163000000    -2.916000000
H     4.724000000    -2.937000000    -3.521000000
H     5.344000000    -2.532000000    -2.201000000
O    -0.861000000     7.238000000     3.979000000
H    -0.796000000     7.710000000     4.809000000
H    -1.471000000     6.522000000     4.157000000
O    -2.987000000    -3.258000000    -5.963000000
H    -3.164000000    -2.412000000    -6.374000000
H    -2.468000000    -3.045000000    -5.188000000
O    -4.476000000     2.183000000    -0.698000000
H    -4.012000000     1.799000000     0.046000000
H    -3.783000000     2.528000000    -1.261000000
O     0.023000000    -1.490000000     2.581000000
H    -0.280000000    -0.589000000     2.698000000
H    -0.285000000    -1.734000000     1.708000000
O    -4.981000000     0.613000000     2.002000000
H    -4.838000000    -0.262000000     2.362000000
H    -4.100000000     0.964000000     1.869000000
O     5.805000000     1.273000000     0.887000000
H     5.263000000     2.058000000     0.966000000
H     5.940000000     0.983000000     1.789000000
O    -6.699000000     2.655000000     1.792000000
H    -5.978000000     2.026000000     1.835000000
H    -6.350000000     3.447000000     2.202000000
O    -0.740000000    -0.555000000    -5.056000000
H    -1.237000000    -1.155000000    -4.499000000
H     0.126000000    -0.514000000    -4.650000000
O     0.551000000     4.774000000     5.774000000
H     0.784000000     3.996000000     6.280000000
H    -0.394000000     4.700000000     5.641000000
O     4.595000000     0.894000000    -3.012000000
H     4.886000000     0.143000000    -2.496000000
H     4.351000000     1.552000000    -2.360000000
O     0.015000000     1.632000000    -2.518000000
H     0.736000000     1.302000000    -3.054000000
H     0.116000000     1.181000000    -1.679000000
O    -2.631000000     2.939000000    -2.353000000
H    -1.782000000     2.507000000    -2.450000000
H    -2.725000000     3.463000000    -3.148000000
O     4.078000000    -4.786000000     3.075000000
H     3.249000000    -4.624000000     2.625000000
H     4.579000000    -5.329000000     2.467000000
O    -1.547000000    -5.263000000     1.729000000
H    -0.882000000    -5.296000000     1.041000000
H    -1.323000000    -5.987000000     2.313000000
O    -4.517000000     0.394000000    -3.568000000
H    -4.150000000     1.142000000    -3.097000000
H    -5.411000000     0.661000000    -3.782000000
O     0.094000000    -1.425000000    -7.523000000
H    -0.127000000    -1.199000000    -6.620000000
H    -0.296000000    -0.725000000    -8.047000000
O     0.957000000    -6.980000000    -4.395000000
H     1.833000000    -6.790000000    -4.729000000
H     0.486000000    -6.149000000    -4.472000000
O     2.978000000     3.174000000     4.357000000
H     2.215000000     3.620000000     3.988000000
H     2.633000000     2.693000000     5.110000000
O     6.089000000    -0.761000000    -1.070000000
H     7.042000000    -0.768000000    -0.978000000
H     5.778000000    -0.278000000    -0.305000000
O    -5.917000000    -3.576000000    -2.412000000
H    -5.011000000    -3.725000000    -2.140000000
H    -5.853000000    -3.340000000    -3.337000000
O     2.386000000    -5.031000000    -1.632000000
H     3.151000000    -5.593000000    -1.756000000
H     2.301000000    -4.555000000    -2.458000000
O    -0.538000000    -4.816000000    -4.795000000
H    -1.334000000    -5.313000000    -4.608000000
H    -0.484000000    -4.802000000    -5.751000000
O     1.312000000    -4.021000000     2.755000000
H     0.908000000    -4.749000000     3.227000000
H     0.769000000    -3.264000000     2.972000000
O     3.804000000    -1.665000000     4.114000000
H     2.949000000    -1.817000000     3.713000000
H     4.272000000    -2.493000000     4.002000000
