144
-2807.69192
O    -3.107000000    -5.182000000    -2.604000000
H    -3.395000000    -5.670000000    -3.376000000
H    -2.753000000    -5.850000000    -2.017000000
O    -5.487000000     4.292000000     4.943000000
H    -4.783000000     4.469000000     4.319000000
H    -5.687000000     3.364000000     4.821000000
O    -2.873000000     6.553000000     0.955000000
H    -3.386000000     5.745000000     0.980000000
H    -2.172000000     6.372000000     0.328000000
O    -1.588000000     5.582000000     4.470000000
H    -1.135000000     5.458000000     5.304000000
H    -0.899000000     5.845000000     3.860000000
O    -6.316000000     4.896000000     1.157000000
H    -5.413000000     4.644000000     1.347000000
H    -6.733000000     4.960000000     2.016000000
O    -0.983000000     5.512000000    -1.006000000
H    -1.027000000     5.020000000    -1.826000000
H    -1.030000000     4.844000000    -0.322000000
O    -1.592000000    -1.247000000     4.278000000
H    -1.119000000    -0.443000000     4.490000000
H    -1.060000000    -1.668000000     3.603000000
O    -3.687000000     4.034000000     2.671000000
H    -2.817000000     4.202000000     3.034000000
H    -3.520000000     3.541000000     1.868000000
O     1.284000000     7.597000000    -1.369000000
H     1.646000000     7.231000000    -2.176000000
H     0.512000000     7.060000000    -1.188000000
O    -1.698000000     8.108000000    -1.571000000
H    -1.639000000     7.177000000    -1.358000000
H    -1.682000000     8.137000000    -2.528000000
O     1.988000000    -1.453000000    -4.623000000
H     2.840000000    -1.539000000    -5.052000000
H     1.370000000    -1.320000000    -5.342000000
O    -4.987000000    -1.061000000     2.797000000
H    -4.149000000    -1.266000000     3.212000000
H    -4.998000000    -1.596000000     2.003000000
O    -1.971000000    -6.942000000    -1.006000000
H    -1.665000000    -6.220000000    -0.457000000
H    -1.697000000    -7.731000000    -0.538000000
O     1.825000000     3.093000000    -1.630000000
H     2.035000000     2.648000000    -2.451000000
H     0.963000000     2.754000000    -1.389000000
O    -1.676000000     1.477000000     5.733000000
H    -1.308000000     1.957000000     4.992000000
H    -2.555000000     1.230000000     5.446000000
O    -0.711000000    -5.818000000     1.451000000
H     0.065000000    -5.284000000     1.620000000
H    -0.448000000    -6.706000000     1.691000000
O    -0.703000000    -5.577000000    -5.303000000
H    -1.638000000    -5.380000000    -5.247000000
H    -0.317000000    -5.122000000    -4.554000000
O     5.126000000     5.470000000     0.820000000
H     5.239000000     5.748000000    -0.089000000
H     4.209000000     5.200000000     0.875000000
O     5.340000000    -1.724000000    -3.879000000
H     4.561000000    -1.211000000    -3.662000000
H     6.072000000    -1.137000000    -3.692000000
O    -0.888000000     2.450000000     3.450000000
H    -1.101000000     1.704000000     2.890000000
H     0.025000000     2.653000000     3.241000000
O     0.309000000     5.784000000     2.439000000
H     1.119000000     5.828000000     1.930000000
H     0.011000000     4.880000000     2.337000000
O     2.973000000     4.351000000     0.950000000
H     2.675000000     4.008000000     0.108000000
H     2.627000000     3.735000000     1.596000000
O     0.142000000    -4.299000000    -2.856000000
H    -0.068000000    -3.420000000    -2.541000000
H     0.890000000    -4.572000000    -2.325000000
O    -4.968000000     0.351000000    -1.016000000
H    -5.383000000     1.161000000    -0.719000000
H    -5.227000000    -0.303000000    -0.367000000
O    -4.850000000    -2.921000000     0.289000000
H    -4.202000000    -3.439000000     0.767000000
H    -4.473000000    -2.814000000    -0.585000000
O    -3.973000000     4.386000000    -0.873000000
H    -3.406000000     3.852000000    -0.316000000
H    -3.413000000     5.104000000    -1.166000000
O     0.674000000    -1.925000000     2.606000000
H     0.607000000    -1.599000000     1.708000000
H     0.699000000    -2.877000000     2.514000000
O    -5.300000000     1.456000000     1.742000000
H    -5.192000000     0.541000000     2.003000000
H    -4.524000000     1.648000000     1.216000000
O     6.126000000     2.723000000    -0.030000000
H     5.543000000     3.383000000     0.344000000
H     6.877000000     3.222000000    -0.352000000
O    -6.694000000     3.448000000    -1.145000000
H    -5.738000000     3.417000000    -1.163000000
H    -6.904000000     3.901000000    -0.328000000
O    -1.050000000    -0.569000000    -4.068000000
H    -1.543000000    -0.836000000    -4.844000000
H    -0.248000000    -1.090000000    -4.103000000
O     4.506000000     1.583000000    -3.444000000
H     4.755000000     1.296000000    -2.566000000
H     3.558000000     1.455000000    -3.479000000
O     1.765000000     1.494000000    -3.799000000
H     1.266000000     0.776000000    -3.410000000
H     1.674000000     1.365000000    -4.743000000
O    -1.399000000     3.858000000    -3.200000000
H    -1.636000000     2.986000000    -2.883000000
H    -1.752000000     3.894000000    -4.089000000
O    -4.402000000     2.975000000    -4.155000000
H    -3.937000000     2.750000000    -3.349000000
H    -4.124000000     3.871000000    -4.349000000
O     5.567000000    -3.259000000     1.401000000
H     4.784000000    -3.810000000     1.408000000
H     5.229000000    -2.365000000     1.346000000
O     1.461000000    -4.651000000     2.623000000
H     2.357000000    -4.863000000     2.362000000
H     1.420000000    -4.886000000     3.550000000
O    -2.539000000     1.560000000    -2.324000000
H    -2.285000000     0.637000000    -2.322000000
H    -3.166000000     1.637000000    -1.605000000
O    -7.961000000     2.107000000     2.881000000
H    -7.086000000     2.146000000     2.494000000
H    -8.130000000     3.000000000     3.181000000
O    -5.528000000    -1.148000000    -3.520000000
H    -5.498000000    -0.662000000    -2.697000000
H    -6.242000000    -1.774000000    -3.403000000
O     2.494000000     2.329000000     2.846000000
H     2.677000000     1.419000000     3.078000000
H     2.659000000     2.820000000     3.651000000
O     5.095000000     0.442000000    -1.182000000
H     4.908000000    -0.101000000    -0.416000000
H     5.432000000     1.261000000    -0.819000000
O     4.887000000    -0.506000000     1.747000000
H     5.687000000    -0.205000000     2.178000000
H     4.227000000    -0.504000000     2.440000000
O    -3.409000000    -2.609000000    -1.879000000
H    -3.355000000    -3.483000000    -2.266000000
H    -3.707000000    -2.048000000    -2.595000000
O    -3.473000000    -4.944000000     1.240000000
H    -2.574000000    -5.054000000     1.550000000
H    -3.685000000    -5.779000000     0.821000000
O     3.781000000    -5.631000000     1.731000000
H     4.189000000    -5.872000000     0.899000000
H     3.753000000    -6.448000000     2.230000000
O     3.016000000    -0.311000000     3.756000000
H     3.237000000    -0.146000000     4.673000000
H     2.305000000    -0.951000000     3.793000000
O    -4.451000000     1.370000000     4.750000000
H    -4.286000000     1.430000000     3.809000000
H    -5.251000000     0.848000000     4.820000000
