144
-2784.43459
O    -0.488000000    -3.643000000     5.739000000
H    -0.851000000    -3.892000000     6.589000000
H    -0.556000000    -2.688000000     5.719000000
O    -1.852000000    -4.111000000    -1.064000000
H    -0.955000000    -4.330000000    -0.815000000
H    -2.319000000    -4.029000000    -0.232000000
O    -4.749000000    -2.369000000     4.103000000
H    -5.566000000    -2.791000000     4.367000000
H    -4.103000000    -3.074000000     4.105000000
O    -3.299000000     3.477000000     4.961000000
H    -3.259000000     3.993000000     4.156000000
H    -3.269000000     2.567000000     4.663000000
O    -2.785000000    -3.463000000     1.512000000
H    -3.221000000    -3.951000000     2.211000000
H    -1.885000000    -3.789000000     1.517000000
O     0.271000000     7.048000000     5.211000000
H    -0.029000000     7.050000000     6.120000000
H    -0.017000000     6.204000000     4.866000000
O    -3.076000000     0.630000000    -4.961000000
H    -3.993000000     0.758000000    -4.717000000
H    -2.638000000     0.410000000    -4.139000000
O    -1.613000000     5.087000000     1.020000000
H    -1.106000000     4.467000000     1.545000000
H    -1.531000000     4.763000000     0.122000000
O    -3.021000000     0.757000000     4.651000000
H    -2.281000000     1.053000000     4.122000000
H    -2.975000000    -0.199000000     4.614000000
O    -0.592000000     4.588000000     4.501000000
H    -1.477000000     4.715000000     4.845000000
H    -0.674000000     3.853000000     3.894000000
O     4.387000000     4.706000000     1.523000000
H     4.310000000     5.286000000     0.765000000
H     3.530000000     4.751000000     1.947000000
O    -3.487000000     5.316000000     2.895000000
H    -2.721000000     5.268000000     2.323000000
H    -4.164000000     5.722000000     2.354000000
O     0.726000000     3.086000000    -2.690000000
H     1.149000000     2.229000000    -2.633000000
H     1.250000000     3.570000000    -3.327000000
O    -4.554000000    -0.696000000     1.732000000
H    -4.012000000    -1.412000000     2.062000000
H    -5.452000000    -0.969000000     1.920000000
O    -1.740000000    -6.469000000     0.785000000
H    -1.511000000    -6.935000000     1.589000000
H    -1.383000000    -7.013000000     0.083000000
O     2.100000000    -1.565000000    -4.879000000
H     1.213000000    -1.233000000    -4.740000000
H     1.988000000    -2.510000000    -4.984000000
O     3.756000000     0.321000000    -3.469000000
H     3.557000000     0.197000000    -2.541000000
H     3.250000000    -0.358000000    -3.915000000
O    -1.263000000     2.300000000     6.822000000
H    -1.766000000     1.654000000     7.319000000
H    -1.881000000     2.636000000     6.173000000
O    -1.851000000    -2.450000000    -4.300000000
H    -2.507000000    -2.702000000    -3.650000000
H    -2.037000000    -3.006000000    -5.057000000
O     4.109000000    -1.055000000    -6.453000000
H     3.872000000    -0.217000000    -6.851000000
H     3.365000000    -1.273000000    -5.893000000
O     0.588000000     0.693000000     4.531000000
H    -0.086000000     1.001000000     3.925000000
H     0.113000000     0.500000000     5.339000000
O     2.118000000     4.507000000     2.824000000
H     1.367000000     4.047000000     2.449000000
H     1.804000000     4.829000000     3.669000000
O     2.756000000    -5.171000000    -0.038000000
H     3.168000000    -5.768000000     0.586000000
H     3.448000000    -4.967000000    -0.667000000
O    -5.586000000    -0.047000000     5.364000000
H    -5.300000000    -0.883000000     4.997000000
H    -4.837000000     0.537000000     5.242000000
O     1.724000000    -4.360000000    -4.672000000
H     2.387000000    -4.935000000    -4.289000000
H     1.222000000    -4.929000000    -5.256000000
O    -5.313000000    -0.418000000    -1.306000000
H    -5.007000000    -0.462000000    -0.400000000
H    -4.913000000    -1.177000000    -1.731000000
O     0.827000000    -7.673000000    -2.556000000
H     0.436000000    -6.867000000    -2.894000000
H     0.233000000    -8.366000000    -2.844000000
O     4.918000000    -2.783000000    -2.959000000
H     5.606000000    -2.201000000    -3.281000000
H     4.787000000    -2.519000000    -2.049000000
O     0.615000000     7.437000000     2.065000000
H     0.265000000     7.535000000     2.951000000
H     0.083000000     6.745000000     1.672000000
O    -4.240000000     3.910000000    -0.135000000
H    -4.099000000     3.445000000     0.690000000
H    -3.370000000     3.969000000    -0.528000000
O     2.621000000     0.338000000     2.856000000
H     2.204000000    -0.435000000     2.476000000
H     1.920000000     0.776000000     3.338000000
O    -3.857000000     2.123000000     1.861000000
H    -4.074000000     1.193000000     1.921000000
H    -3.051000000     2.215000000     2.369000000
O    -6.547000000     2.616000000     2.816000000
H    -5.635000000     2.530000000     2.538000000
H    -6.589000000     3.475000000     3.236000000
O     2.278000000     4.049000000    -4.702000000
H     2.837000000     4.439000000    -5.374000000
H     1.698000000     3.461000000    -5.185000000
O    -0.348000000    -0.266000000    -4.758000000
H    -0.731000000    -1.093000000    -4.464000000
H    -0.892000000     0.408000000    -4.350000000
O    -5.544000000    -4.078000000    -0.295000000
H    -5.125000000    -4.938000000    -0.263000000
H    -4.968000000    -3.551000000    -0.849000000
O     0.694000000     4.020000000     6.905000000
H     0.092000000     3.387000000     7.298000000
H     0.307000000     4.223000000     6.054000000
O     4.061000000    -0.383000000     0.039000000
H     3.438000000    -0.988000000     0.441000000
H     3.820000000     0.476000000     0.386000000
O    -2.302000000     0.449000000    -2.082000000
H    -2.826000000    -0.315000000    -1.841000000
H    -1.396000000     0.171000000    -1.943000000
O    -1.815000000     3.274000000    -1.416000000
H    -2.126000000     2.370000000    -1.460000000
H    -0.924000000     3.237000000    -1.763000000
O     3.173000000     2.233000000     0.921000000
H     2.605000000     1.757000000     1.527000000
H     3.611000000     2.886000000     1.467000000
O     6.717000000     0.494000000    -1.135000000
H     5.772000000     0.550000000    -0.993000000
H     7.101000000     0.757000000    -0.298000000
O     0.172000000    -4.185000000     1.324000000
H     0.975000000    -4.572000000     0.974000000
H     0.262000000    -4.265000000     2.274000000
O     2.941000000     2.538000000     5.254000000
H     2.305000000     1.889000000     4.950000000
H     2.407000000     3.244000000     5.618000000
O     2.287000000    -2.049000000     1.403000000
H     1.368000000    -2.260000000     1.241000000
H     2.667000000    -2.866000000     1.728000000
O    -4.071000000    -3.067000000    -2.312000000
H    -3.374000000    -3.614000000    -1.950000000
H    -4.256000000    -3.450000000    -3.170000000
O     4.245000000    -5.425000000    -3.807000000
H     4.759000000    -5.434000000    -4.614000000
H     4.318000000    -4.526000000    -3.486000000
O     5.089000000     2.584000000    -3.804000000
H     4.420000000     3.263000000    -3.711000000
H     4.596000000     1.790000000    -4.010000000
