144
-2806.67841
O    -3.270000000    -3.527000000     0.748000000
H    -3.055000000    -3.109000000     1.582000000
H    -3.905000000    -4.206000000     0.977000000
O    -1.445000000     3.127000000     5.119000000
H    -1.452000000     2.754000000     4.237000000
H    -0.983000000     2.477000000     5.650000000
O     2.703000000     3.168000000     2.416000000
H     3.259000000     3.881000000     2.099000000
H     1.847000000     3.341000000     2.025000000
O    -5.560000000    -1.590000000     5.084000000
H    -5.707000000    -2.271000000     4.428000000
H    -5.306000000    -0.819000000     4.577000000
O    -6.062000000     0.794000000     0.644000000
H    -5.594000000     0.346000000    -0.060000000
H    -5.407000000     1.368000000     1.041000000
O     2.592000000     2.216000000     5.295000000
H     2.770000000     3.148000000     5.170000000
H     2.471000000     1.874000000     4.409000000
O     4.074000000     6.485000000    -1.335000000
H     3.360000000     6.335000000    -0.715000000
H     3.787000000     6.054000000    -2.140000000
O     3.817000000     1.804000000    -5.494000000
H     4.388000000     1.485000000    -4.796000000
H     4.358000000     1.762000000    -6.283000000
O    -5.819000000     3.574000000     2.769000000
H    -6.042000000     2.676000000     3.016000000
H    -5.903000000     4.074000000     3.581000000
O    -2.878000000    -2.330000000     3.536000000
H    -3.706000000    -2.763000000     3.742000000
H    -2.711000000    -1.763000000     4.289000000
O     1.866000000    -2.169000000    -7.129000000
H     1.071000000    -2.388000000    -7.615000000
H     1.907000000    -2.820000000    -6.429000000
O     4.106000000    -3.436000000    -0.732000000
H     4.294000000    -2.597000000    -0.311000000
H     3.805000000    -4.000000000    -0.020000000
O     1.915000000     5.913000000     0.527000000
H     1.308000000     5.249000000     0.853000000
H     2.179000000     6.401000000     1.307000000
O     0.023000000     0.596000000    -5.073000000
H     0.237000000     0.948000000    -4.209000000
H    -0.529000000    -0.165000000    -4.892000000
O    -0.938000000    -5.267000000     0.842000000
H    -1.640000000    -4.701000000     0.522000000
H    -0.828000000    -5.017000000     1.759000000
O     3.741000000    -3.190000000     2.842000000
H     3.725000000    -4.133000000     2.680000000
H     2.842000000    -2.904000000     2.677000000
O    -1.983000000    -1.460000000    -4.871000000
H    -2.810000000    -1.358000000    -5.343000000
H    -2.221000000    -1.920000000    -4.067000000
O    -4.770000000    -0.036000000    -2.388000000
H    -5.288000000     0.445000000    -3.033000000
H    -3.924000000     0.410000000    -2.379000000
O    -4.335000000     5.128000000     1.249000000
H    -5.029000000     4.736000000     1.780000000
H    -4.685000000     5.125000000     0.358000000
O     0.645000000     5.638000000     3.626000000
H     0.372000000     4.902000000     3.079000000
H    -0.175000000     6.014000000     3.948000000
O     3.584000000     4.826000000    -3.556000000
H     4.060000000     5.406000000    -4.150000000
H     4.244000000     4.204000000    -3.250000000
O    -0.239000000    -4.094000000    -4.587000000
H    -0.726000000    -4.615000000    -3.949000000
H    -0.723000000    -3.270000000    -4.643000000
O    -1.651000000     7.476000000     1.978000000
H    -2.047000000     8.206000000     1.502000000
H    -1.385000000     6.860000000     1.295000000
O     2.649000000    -3.966000000    -4.754000000
H     2.622000000    -4.898000000    -4.968000000
H     1.734000000    -3.687000000    -4.780000000
O    -4.961000000    -2.637000000    -1.695000000
H    -4.496000000    -2.756000000    -0.867000000
H    -4.873000000    -1.703000000    -1.887000000
O     1.864000000     3.492000000    -4.946000000
H     2.451000000     2.754000000    -5.110000000
H     2.381000000     4.096000000    -4.413000000
O     1.297000000    -2.173000000     2.479000000
H     0.926000000    -2.624000000     1.720000000
H     0.983000000    -1.272000000     2.399000000
O    -0.977000000    -7.851000000     0.354000000
H    -1.028000000    -6.917000000     0.560000000
H    -1.752000000    -8.021000000    -0.181000000
O     4.775000000    -3.038000000    -3.350000000
H     4.013000000    -3.331000000    -3.851000000
H     4.450000000    -2.942000000    -2.455000000
O     0.708000000    -7.519000000    -2.436000000
H     0.835000000    -7.631000000    -1.494000000
H     1.519000000    -7.112000000    -2.740000000
O    -2.592000000    -0.365000000     5.528000000
H    -1.705000000    -0.623000000     5.778000000
H    -3.154000000    -0.755000000     6.198000000
O    -3.731000000     2.335000000     1.317000000
H    -3.774000000     3.273000000     1.133000000
H    -2.921000000     2.225000000     1.816000000
O    -3.006000000    -4.009000000    -3.198000000
H    -3.755000000    -3.646000000    -2.725000000
H    -3.181000000    -4.949000000    -3.238000000
O     6.020000000    -0.405000000     0.009000000
H     5.190000000    -0.010000000     0.277000000
H     6.687000000     0.109000000     0.464000000
O    -2.674000000     1.248000000    -1.411000000
H    -1.800000000     1.070000000    -1.063000000
H    -3.090000000     1.793000000    -0.743000000
O     3.207000000     5.145000000     4.749000000
H     3.816000000     5.862000000     4.572000000
H     2.459000000     5.319000000     4.178000000
O    -3.651000000     4.818000000     5.149000000
H    -3.012000000     4.112000000     5.052000000
H    -3.191000000     5.601000000     4.848000000
O     3.800000000     0.886000000     0.969000000
H     2.895000000     0.633000000     0.787000000
H     3.725000000     1.672000000     1.511000000
O    -1.347000000     5.490000000     0.149000000
H    -0.934000000     4.733000000     0.566000000
H    -2.281000000     5.281000000     0.145000000
O     0.078000000     5.923000000    -2.178000000
H     0.891000000     5.434000000    -2.053000000
H    -0.438000000     5.735000000    -1.394000000
O    -4.665000000     0.676000000     3.858000000
H    -4.421000000     1.559000000     3.579000000
H    -3.874000000     0.328000000     4.269000000
O    -0.514000000     3.297000000    -3.117000000
H    -0.027000000     3.290000000    -3.941000000
H    -0.580000000     4.223000000    -2.885000000
O     2.726000000     7.479000000     2.488000000
H     3.136000000     8.312000000     2.722000000
H     1.823000000     7.563000000     2.793000000
O     3.247000000    -5.985000000    -2.217000000
H     3.850000000    -5.264000000    -2.400000000
H     2.869000000    -5.770000000    -1.365000000
O    -3.333000000     4.041000000    -2.318000000
H    -3.973000000     3.764000000    -2.973000000
H    -2.600000000     3.435000000    -2.428000000
O     1.969000000    -5.716000000     0.185000000
H     1.083000000    -5.429000000     0.405000000
H     2.141000000    -6.442000000     0.785000000
O     1.816000000    -1.883000000     5.394000000
H     2.585000000    -2.449000000     5.445000000
H     1.657000000    -1.777000000     4.456000000
O    -0.834000000    -4.133000000     3.422000000
H    -1.434000000    -3.388000000     3.458000000
H    -0.978000000    -4.596000000     4.247000000
