144
-2821.40124
O    -5.289000000    -1.665000000     0.950000000
H    -5.106000000    -1.003000000     0.283000000
H    -4.590000000    -2.310000000     0.845000000
O    -2.381000000     2.077000000     4.812000000
H    -2.232000000     3.012000000     4.673000000
H    -2.298000000     1.960000000     5.759000000
O     1.743000000     5.120000000     0.751000000
H     2.004000000     5.145000000    -0.170000000
H     0.865000000     4.740000000     0.741000000
O    -5.582000000     3.666000000     4.124000000
H    -5.214000000     3.026000000     3.515000000
H    -6.495000000     3.757000000     3.852000000
O    -1.991000000     8.585000000    -2.359000000
H    -1.312000000     8.957000000    -2.923000000
H    -1.630000000     7.747000000    -2.070000000
O    -5.678000000     2.472000000    -0.398000000
H    -5.416000000     2.779000000     0.470000000
H    -5.255000000     3.080000000    -1.005000000
O     6.636000000    -0.804000000    -1.790000000
H     6.382000000    -0.235000000    -1.063000000
H     5.937000000    -1.456000000    -1.840000000
O    -1.536000000    -3.084000000     2.938000000
H    -1.775000000    -2.318000000     3.460000000
H    -0.745000000    -3.422000000     3.357000000
O     4.295000000    -2.240000000     1.209000000
H     3.711000000    -1.655000000     1.691000000
H     4.205000000    -3.085000000     1.649000000
O    -0.977000000     6.503000000    -1.123000000
H    -0.928000000     5.588000000    -0.848000000
H    -0.669000000     6.998000000    -0.363000000
O    -2.100000000     6.200000000    -4.237000000
H    -1.593000000     5.488000000    -3.847000000
H    -2.768000000     6.406000000    -3.583000000
O    -3.003000000    -2.441000000    -2.333000000
H    -2.656000000    -1.617000000    -1.991000000
H    -3.272000000    -2.233000000    -3.228000000
O    -2.551000000     1.555000000    -3.144000000
H    -2.694000000     1.952000000    -4.003000000
H    -1.611000000     1.648000000    -2.991000000
O    -5.167000000     6.269000000    -0.406000000
H    -4.629000000     6.354000000     0.381000000
H    -4.662000000     5.694000000    -0.981000000
O    -3.163000000     5.482000000     1.199000000
H    -2.444000000     5.079000000     0.713000000
H    -3.743000000     4.752000000     1.416000000
O     2.246000000     5.334000000    -1.958000000
H     2.009000000     4.791000000    -2.710000000
H     2.983000000     5.862000000    -2.267000000
O    -3.003000000    -0.946000000     4.942000000
H    -2.469000000    -0.246000000     5.317000000
H    -3.326000000    -1.434000000     5.700000000
O     5.958000000     1.498000000    -0.332000000
H     6.443000000     2.281000000    -0.072000000
H     5.397000000     1.303000000     0.418000000
O    -4.261000000     0.204000000    -1.037000000
H    -3.648000000     0.537000000    -1.693000000
H    -4.635000000     0.990000000    -0.638000000
O     0.771000000    -2.494000000     4.436000000
H     0.569000000    -2.634000000     5.361000000
H     0.628000000    -1.557000000     4.300000000
O     3.014000000    -6.112000000    -0.921000000
H     2.230000000    -6.553000000    -0.593000000
H     3.698000000    -6.340000000    -0.292000000
O    -3.254000000    -3.881000000     1.005000000
H    -2.607000000    -4.492000000     0.653000000
H    -2.782000000    -3.397000000     1.682000000
O    -0.326000000    -3.815000000    -3.032000000
H    -1.046000000    -3.199000000    -2.895000000
H     0.011000000    -3.601000000    -3.902000000
O    -4.080000000     2.835000000     2.053000000
H    -4.184000000     1.965000000     2.440000000
H    -3.415000000     2.718000000     1.376000000
O    -4.507000000    -4.419000000    -1.536000000
H    -3.817000000    -3.859000000    -1.893000000
H    -4.376000000    -4.384000000    -0.588000000
O     4.766000000     1.950000000     2.491000000
H     4.432000000     2.845000000     2.544000000
H     5.668000000     2.012000000     2.803000000
O     3.055000000    -0.127000000     2.842000000
H     3.638000000     0.575000000     2.553000000
H     2.223000000     0.058000000     2.407000000
O     4.684000000     3.240000000    -3.584000000
H     5.363000000     3.437000000    -2.939000000
H     5.017000000     2.477000000    -4.057000000
O    -2.760000000     4.754000000     3.898000000
H    -3.374000000     4.024000000     3.819000000
H    -2.608000000     5.037000000     2.996000000
O     4.339000000     4.438000000     1.498000000
H     3.497000000     4.632000000     1.087000000
H     4.676000000     5.292000000     1.769000000
O    -4.056000000     4.256000000    -1.789000000
H    -3.493000000     3.834000000    -1.139000000
H    -3.872000000     3.789000000    -2.604000000
O    -4.728000000     0.295000000     2.940000000
H    -4.004000000     0.013000000     3.498000000
H    -4.863000000    -0.435000000     2.335000000
O     2.092000000     3.334000000    -3.857000000
H     1.865000000     2.541000000    -4.343000000
H     3.043000000     3.292000000    -3.760000000
O     1.152000000    -5.865000000    -4.317000000
H     0.455000000    -5.581000000    -3.725000000
H     0.695000000    -6.133000000    -5.114000000
O     4.821000000    -2.615000000    -1.541000000
H     4.477000000    -2.558000000    -0.650000000
H     4.291000000    -3.292000000    -1.960000000
O     0.351000000    -6.766000000     1.329000000
H    -0.029000000    -7.263000000     2.053000000
H     0.758000000    -7.428000000     0.771000000
O    -1.309000000    -5.340000000    -0.370000000
H    -0.698000000    -5.699000000     0.274000000
H    -0.749000000    -4.982000000    -1.058000000
O     1.104000000     8.053000000    -2.342000000
H     1.803000000     7.731000000    -1.773000000
H     0.486000000     7.324000000    -2.400000000
O    -0.046000000     7.893000000     1.262000000
H     0.074000000     8.687000000     1.784000000
H     0.831000000     7.513000000     1.201000000
O    -0.438000000     3.949000000    -3.442000000
H     0.413000000     3.971000000    -3.880000000
H    -0.234000000     3.715000000    -2.536000000
O     2.895000000    -4.179000000    -2.826000000
H     2.794000000    -4.887000000    -2.191000000
H     2.390000000    -4.465000000    -3.587000000
O    -5.317000000    -5.590000000     1.825000000
H    -4.498000000    -5.141000000     1.617000000
H    -5.141000000    -6.035000000     2.654000000
O     4.589000000    -4.908000000     2.128000000
H     4.740000000    -5.668000000     1.566000000
H     3.773000000    -5.108000000     2.586000000
O     2.268000000    -1.490000000    -3.565000000
H     2.658000000    -2.109000000    -2.948000000
H     1.398000000    -1.846000000    -3.745000000
O     2.229000000    -5.247000000     3.404000000
H     1.954000000    -4.456000000     3.868000000
H     1.428000000    -5.765000000     3.318000000
O     1.731000000     0.834000000    -5.280000000
H     2.259000000     0.410000000    -5.956000000
H     1.938000000     0.354000000    -4.478000000
O    -0.439000000    -0.076000000     3.431000000
H    -0.960000000     0.722000000     3.342000000
H    -0.522000000    -0.511000000     2.583000000
O    -1.845000000    -5.521000000     4.462000000
H    -2.632000000    -6.042000000     4.302000000
H    -1.856000000    -4.854000000     3.776000000
