144
-2826.10701
O    -2.599000000     5.556000000     1.515000000
H    -3.504000000     5.718000000     1.248000000
H    -2.431000000     4.651000000     1.254000000
O     1.853000000    -5.277000000     1.585000000
H     1.161000000    -4.668000000     1.842000000
H     1.615000000    -5.550000000     0.699000000
O     2.815000000     4.394000000     1.520000000
H     3.347000000     3.823000000     0.965000000
H     1.948000000     3.989000000     1.518000000
O    -1.882000000     2.034000000     3.597000000
H    -0.940000000     2.022000000     3.769000000
H    -1.964000000     2.448000000     2.738000000
O     3.377000000    -4.307000000    -2.850000000
H     3.462000000    -5.237000000    -3.059000000
H     2.463000000    -4.100000000    -3.047000000
O    -3.379000000     5.604000000     4.207000000
H    -3.632000000     4.908000000     4.814000000
H    -3.308000000     5.167000000     3.358000000
O    -5.898000000     3.552000000     3.110000000
H    -6.193000000     2.693000000     3.412000000
H    -6.079000000     4.139000000     3.845000000
O    -4.505000000     2.845000000    -1.903000000
H    -4.754000000     3.546000000    -1.300000000
H    -4.704000000     3.195000000    -2.772000000
O    -4.259000000     3.474000000     5.679000000
H    -4.958000000     3.100000000     6.215000000
H    -3.925000000     2.734000000     5.171000000
O    -1.549000000    -2.775000000    -3.610000000
H    -2.306000000    -2.983000000    -3.062000000
H    -1.348000000    -1.862000000    -3.405000000
O    -3.279000000    -4.879000000     1.437000000
H    -3.200000000    -5.763000000     1.796000000
H    -3.110000000    -4.985000000     0.501000000
O     3.750000000    -2.305000000     3.793000000
H     4.123000000    -2.541000000     4.642000000
H     4.112000000    -2.949000000     3.184000000
O     0.996000000     1.585000000     4.588000000
H     0.817000000     0.802000000     5.108000000
H     1.952000000     1.632000000     4.547000000
O    -1.233000000     7.373000000     0.000000000
H    -1.414000000     6.514000000     0.384000000
H    -1.559000000     7.998000000     0.647000000
O    -4.392000000     6.283000000    -1.634000000
H    -4.740000000     5.852000000    -0.854000000
H    -4.974000000     6.006000000    -2.341000000
O    -1.672000000    -0.967000000     3.596000000
H    -1.244000000    -0.782000000     4.432000000
H    -1.412000000    -0.241000000     3.028000000
O     4.862000000     2.032000000     1.077000000
H     4.920000000     1.093000000     1.256000000
H     4.707000000     2.430000000     1.934000000
O    -0.838000000     0.446000000    -3.552000000
H    -1.790000000     0.497000000    -3.638000000
H    -0.610000000     1.175000000    -2.975000000
O    -4.099000000     0.919000000     4.851000000
H    -3.542000000     1.125000000     4.100000000
H    -4.574000000     0.131000000     4.589000000
O    -4.561000000     1.700000000     1.317000000
H    -5.293000000     2.126000000     1.763000000
H    -3.878000000     2.370000000     1.284000000
O     3.237000000     2.991000000    -3.147000000
H     3.884000000     3.225000000    -2.481000000
H     2.402000000     3.281000000    -2.781000000
O     4.890000000     3.296000000    -1.067000000
H     4.839000000     2.779000000    -0.263000000
H     5.827000000     3.346000000    -1.259000000
O    -2.563000000    -4.935000000    -1.262000000
H    -2.769000000    -4.019000000    -1.449000000
H    -2.913000000    -5.417000000    -2.011000000
O    -5.543000000    -1.417000000     3.888000000
H    -6.167000000    -2.137000000     3.987000000
H    -4.977000000    -1.689000000     3.166000000
O     2.682000000     5.485000000     4.177000000
H     2.678000000     5.124000000     3.291000000
H     1.761000000     5.487000000     4.439000000
O    -5.166000000    -2.954000000     1.174000000
H    -4.429000000    -3.536000000     1.357000000
H    -5.725000000    -3.454000000     0.579000000
O    -2.717000000    -3.451000000     4.157000000
H    -2.804000000    -3.642000000     3.223000000
H    -2.595000000    -2.502000000     4.197000000
O    -5.338000000     5.043000000     0.568000000
H    -5.543000000     4.348000000     1.194000000
H    -6.031000000     5.691000000     0.695000000
O    -3.457000000     0.470000000    -2.894000000
H    -3.707000000    -0.008000000    -2.103000000
H    -4.265000000     0.892000000    -3.185000000
O     0.587000000    -4.482000000    -3.348000000
H     0.205000000    -5.226000000    -3.814000000
H    -0.006000000    -3.754000000    -3.533000000
O    -0.481000000     5.232000000     3.236000000
H    -1.385000000     5.507000000     3.083000000
H    -0.284000000     4.641000000     2.510000000
O    -3.823000000    -2.650000000    -2.257000000
H    -4.333000000    -2.139000000    -1.628000000
H    -4.451000000    -2.885000000    -2.940000000
O     2.555000000     6.707000000    -0.150000000
H     3.053000000     6.045000000     0.330000000
H     1.844000000     6.948000000     0.443000000
O    -6.982000000     1.332000000    -0.818000000
H    -7.618000000     1.997000000    -0.553000000
H    -6.144000000     1.659000000    -0.491000000
O     1.284000000     7.526000000     2.090000000
H     0.653000000     8.209000000     2.316000000
H     0.921000000     6.728000000     2.475000000
O     4.812000000    -2.135000000    -1.243000000
H     4.615000000    -1.336000000    -1.733000000
H     4.033000000    -2.681000000    -1.353000000
O     0.300000000    -5.669000000    -0.840000000
H     0.685000000    -5.012000000    -1.419000000
H    -0.644000000    -5.543000000    -0.929000000
O    -0.326000000    -6.154000000     3.958000000
H    -0.113000000    -5.294000000     3.595000000
H     0.187000000    -6.206000000     4.765000000
O     1.735000000     0.205000000    -4.244000000
H     2.295000000    -0.302000000    -3.656000000
H     0.890000000     0.244000000    -3.795000000
O     0.120000000     6.027000000     5.641000000
H    -0.128000000     5.345000000     6.264000000
H     0.004000000     5.620000000     4.782000000
O     6.042000000    -4.901000000    -0.837000000
H     5.360000000    -5.551000000    -0.668000000
H     5.565000000    -4.083000000    -0.977000000
O     4.543000000     0.307000000    -2.670000000
H     4.050000000     1.126000000    -2.719000000
H     5.239000000     0.408000000    -3.319000000
O     1.053000000     4.095000000    -1.917000000
H     1.257000000     4.341000000    -1.015000000
H     0.111000000     3.926000000    -1.911000000
O    -0.215000000    -3.852000000     2.502000000
H    -0.962000000    -4.068000000     1.943000000
H    -0.373000000    -2.947000000     2.773000000
O    -4.620000000    -0.732000000    -0.354000000
H    -4.440000000    -0.098000000     0.340000000
H    -4.849000000    -1.537000000     0.110000000
O     4.358000000    -4.416000000     2.031000000
H     4.712000000    -5.304000000     2.076000000
H     3.412000000    -4.539000000     1.951000000
O     5.121000000    -0.780000000     1.767000000
H     4.654000000    -1.071000000     2.551000000
H     5.152000000    -1.554000000     1.206000000
O    -1.695000000     3.208000000    -2.267000000
H    -2.022000000     3.778000000    -1.571000000
H    -2.471000000     2.746000000    -2.584000000
