144
-2813.33228
O    -0.671000000    -4.852000000    -4.117000000
H     0.145000000    -5.231000000    -3.789000000
H    -1.351000000    -5.458000000    -3.823000000
O    -4.676000000     2.617000000     2.056000000
H    -5.130000000     2.408000000     1.239000000
H    -5.370000000     2.646000000     2.715000000
O     3.420000000    -0.887000000    -5.687000000
H     2.624000000    -1.084000000    -5.193000000
H     3.106000000    -0.504000000    -6.506000000
O    -3.638000000    -5.905000000    -1.732000000
H    -2.913000000    -5.740000000    -1.129000000
H    -3.561000000    -6.834000000    -1.949000000
O    -3.309000000     4.518000000     0.757000000
H    -3.850000000     4.116000000     1.437000000
H    -2.587000000     4.926000000     1.235000000
O     4.079000000     2.860000000     3.333000000
H     3.135000000     2.818000000     3.181000000
H     4.248000000     2.176000000     3.981000000
O     2.285000000    -5.555000000    -1.745000000
H     2.346000000    -5.330000000    -0.817000000
H     1.481000000    -6.069000000    -1.814000000
O    -1.734000000    -6.058000000    -0.049000000
H    -1.476000000    -5.331000000     0.517000000
H    -1.579000000    -6.841000000     0.480000000
O     4.543000000    -4.362000000     0.760000000
H     4.414000000    -5.253000000     1.087000000
H     5.330000000    -4.418000000     0.218000000
O     5.713000000     4.377000000     4.955000000
H     5.223000000     3.750000000     4.421000000
H     5.641000000     5.204000000     4.478000000
O     4.963000000     2.258000000    -3.380000000
H     4.368000000     2.610000000    -4.041000000
H     4.388000000     1.852000000    -2.731000000
O     1.200000000     4.845000000     4.123000000
H     0.726000000     4.555000000     4.903000000
H     1.299000000     4.054000000     3.594000000
O    -5.930000000    -0.573000000     1.898000000
H    -6.265000000    -0.527000000     2.794000000
H    -5.805000000     0.341000000     1.643000000
O    -1.521000000     0.045000000     6.524000000
H    -1.716000000    -0.886000000     6.632000000
H    -0.612000000     0.066000000     6.224000000
O    -1.033000000    -1.783000000    -4.848000000
H    -1.497000000    -1.137000000    -4.317000000
H    -1.386000000    -2.626000000    -4.564000000
O    -2.314000000     2.499000000     6.356000000
H    -1.774000000     1.714000000     6.269000000
H    -2.537000000     2.738000000     5.456000000
O    -0.801000000    -2.414000000     5.235000000
H    -0.431000000    -2.110000000     4.406000000
H    -0.851000000    -3.365000000     5.141000000
O    -1.734000000    -2.307000000     2.185000000
H    -1.903000000    -1.556000000     2.754000000
H    -2.301000000    -2.167000000     1.427000000
O     1.749000000    -4.008000000    -6.066000000
H     2.505000000    -4.220000000    -5.519000000
H     0.992000000    -4.193000000    -5.510000000
O     3.992000000     2.668000000     0.186000000
H     3.640000000     2.289000000     0.992000000
H     3.673000000     2.092000000    -0.509000000
O    -5.506000000     1.279000000    -0.326000000
H    -5.052000000     1.853000000    -0.944000000
H    -5.036000000     0.447000000    -0.384000000
O     4.680000000    -1.774000000     0.870000000
H     5.611000000    -1.739000000     1.090000000
H     4.487000000    -2.709000000     0.791000000
O     0.695000000     0.681000000     4.769000000
H     1.164000000    -0.148000000     4.671000000
H     1.151000000     1.286000000     4.184000000
O    -0.233000000    -4.390000000     1.735000000
H     0.607000000    -3.935000000     1.796000000
H    -0.866000000    -3.774000000     2.103000000
O    -3.287000000     6.494000000     3.575000000
H    -2.529000000     6.367000000     3.004000000
H    -4.041000000     6.430000000     2.988000000
O     1.019000000     3.150000000    -3.133000000
H     0.408000000     3.684000000    -2.625000000
H     0.563000000     2.984000000    -3.958000000
O    -2.351000000     2.661000000     3.732000000
H    -1.650000000     2.910000000     3.129000000
H    -3.126000000     2.577000000     3.176000000
O    -0.254000000     4.795000000    -1.623000000
H    -0.870000000     5.519000000    -1.512000000
H    -0.291000000     4.319000000    -0.793000000
O    -0.850000000     4.944000000     6.265000000
H    -1.361000000     5.372000000     5.578000000
H    -1.204000000     4.056000000     6.308000000
O     2.180000000    -1.965000000     4.347000000
H     1.968000000    -2.588000000     3.651000000
H     3.045000000    -2.236000000     4.655000000
O     1.877000000     6.608000000     2.256000000
H     2.479000000     6.184000000     1.644000000
H     1.848000000     6.018000000     3.010000000
O    -4.363000000    -1.564000000    -1.597000000
H    -5.058000000    -1.988000000    -2.100000000
H    -3.898000000    -1.025000000    -2.237000000
O    -2.690000000    -0.389000000     3.682000000
H    -2.945000000    -0.520000000     4.595000000
H    -2.415000000     0.527000000     3.639000000
O     3.510000000     6.617000000     5.110000000
H     2.943000000     5.957000000     4.709000000
H     3.331000000     6.548000000     6.048000000
O     2.545000000     1.397000000    -1.744000000
H     1.917000000     0.759000000    -1.406000000
H     2.005000000     2.125000000    -2.053000000
O     3.882000000    -5.116000000    -3.933000000
H     4.455000000    -4.473000000    -3.515000000
H     3.240000000    -5.339000000    -3.258000000
O     1.842000000     3.148000000     6.930000000
H     1.985000000     2.503000000     7.622000000
H     1.851000000     2.637000000     6.121000000
O    -4.289000000     3.422000000    -1.586000000
H    -3.632000000     3.230000000    -2.256000000
H    -3.812000000     3.914000000    -0.918000000
O     2.156000000    -3.215000000     1.988000000
H     3.029000000    -3.590000000     1.877000000
H     2.188000000    -2.388000000     1.506000000
O     0.075000000    -6.919000000    -1.995000000
H    -0.654000000    -6.591000000    -1.470000000
H     0.509000000    -7.559000000    -1.430000000
O     4.054000000     5.272000000     0.769000000
H     4.645000000     5.294000000     1.521000000
H     3.987000000     4.344000000     0.543000000
O     0.015000000    -1.185000000    -7.345000000
H    -0.388000000    -1.471000000    -6.525000000
H    -0.147000000    -0.242000000    -7.376000000
O    -2.169000000     2.887000000    -3.346000000
H    -1.371000000     3.357000000    -3.587000000
H    -2.631000000     2.759000000    -4.175000000
O    -4.351000000    -2.867000000     1.016000000
H    -4.802000000    -2.085000000     1.335000000
H    -4.123000000    -2.660000000     0.110000000
O    -0.879000000     5.668000000     2.047000000
H    -0.641000000     4.792000000     2.353000000
H    -0.064000000     6.028000000     1.696000000
O    -3.729000000    -0.247000000    -4.236000000
H    -4.113000000     0.606000000    -4.441000000
H    -3.660000000    -0.688000000    -5.083000000
O     4.292000000    -1.374000000    -1.921000000
H     4.403000000    -1.381000000    -0.970000000
H     3.815000000    -0.564000000    -2.100000000
O     5.012000000     1.471000000     5.411000000
H     5.724000000     1.856000000     5.923000000
H     5.046000000     0.537000000     5.620000000
