144
-2829.95480
O    -2.432000000    -4.779000000    -0.274000000
H    -1.847000000    -5.537000000    -0.256000000
H    -2.684000000    -4.649000000     0.640000000
O    -1.518000000    -3.137000000    -3.997000000
H    -0.870000000    -3.788000000    -3.728000000
H    -1.881000000    -2.807000000    -3.176000000
O     2.711000000     2.984000000     1.824000000
H     2.535000000     3.261000000     0.925000000
H     2.755000000     2.029000000     1.777000000
O     2.930000000    -3.820000000    -3.699000000
H     2.974000000    -3.167000000    -4.398000000
H     2.152000000    -4.338000000    -3.904000000
O     2.601000000    -4.303000000     2.665000000
H     2.488000000    -3.428000000     3.037000000
H     2.823000000    -4.146000000     1.747000000
O     3.841000000    -3.234000000     0.127000000
H     4.773000000    -3.450000000     0.109000000
H     3.470000000    -3.709000000    -0.616000000
O    -2.762000000    -2.276000000    -1.570000000
H    -2.220000000    -3.037000000    -1.360000000
H    -3.109000000    -1.989000000    -0.725000000
O     3.464000000     0.716000000     5.164000000
H     4.270000000     0.901000000     4.682000000
H     2.847000000     1.384000000     4.864000000
O     0.221000000    -5.989000000     3.563000000
H     0.800000000    -5.520000000     2.962000000
H     0.220000000    -5.455000000     4.358000000
O     0.202000000     7.403000000     0.182000000
H    -0.223000000     6.966000000     0.920000000
H     1.136000000     7.363000000     0.385000000
O     0.363000000     3.896000000    -2.066000000
H    -0.183000000     4.667000000    -1.912000000
H    -0.240000000     3.242000000    -2.418000000
O    -0.908000000     4.303000000     4.503000000
H    -0.856000000     3.747000000     3.725000000
H    -1.398000000     3.781000000     5.138000000
O    -0.533000000    -0.889000000    -5.147000000
H    -1.229000000    -0.237000000    -5.062000000
H    -0.917000000    -1.695000000    -4.803000000
O    -4.769000000     0.140000000     4.570000000
H    -5.324000000    -0.548000000     4.936000000
H    -3.981000000    -0.318000000     4.277000000
O    -5.612000000     5.244000000     2.905000000
H    -6.233000000     4.614000000     3.271000000
H    -4.898000000     4.705000000     2.564000000
O    -2.282000000    -4.518000000    -6.384000000
H    -1.811000000    -4.106000000    -5.660000000
H    -3.075000000    -4.873000000    -5.982000000
O     2.576000000    -1.614000000     3.701000000
H     3.003000000    -1.288000000     2.910000000
H     2.869000000    -1.021000000     4.393000000
O     2.638000000     3.680000000    -0.714000000
H     1.897000000     3.844000000    -1.298000000
H     3.282000000     3.234000000    -1.264000000
O    -5.995000000     1.292000000     1.775000000
H    -6.865000000     1.611000000     2.016000000
H    -5.396000000     1.783000000     2.337000000
O     5.432000000    -2.519000000    -3.955000000
H     6.021000000    -3.273000000    -3.980000000
H     4.593000000    -2.880000000    -3.666000000
O    -0.632000000     1.075000000     5.137000000
H    -0.633000000     0.166000000     4.837000000
H    -0.724000000     1.592000000     4.337000000
O    -2.052000000    -4.415000000     2.882000000
H    -1.606000000    -5.257000000     2.978000000
H    -2.979000000    -4.643000000     2.810000000
O    -2.027000000     2.908000000    -3.327000000
H    -2.250000000     2.353000000    -4.074000000
H    -2.776000000     3.498000000    -3.235000000
O     0.422000000    -5.007000000    -2.729000000
H     0.456000000    -4.566000000    -1.880000000
H     0.451000000    -5.940000000    -2.517000000
O    -2.972000000     1.136000000    -5.300000000
H    -3.757000000     1.112000000    -5.848000000
H    -3.251000000     0.755000000    -4.467000000
O    -4.144000000     3.883000000    -0.260000000
H    -3.315000000     3.578000000     0.110000000
H    -3.933000000     4.731000000    -0.652000000
O    -2.426000000     3.222000000     6.657000000
H    -3.264000000     2.962000000     6.274000000
H    -2.623000000     3.374000000     7.582000000
O    -1.295000000     6.069000000    -1.713000000
H    -2.200000000     6.007000000    -1.406000000
H    -0.833000000     6.519000000    -1.006000000
O    -2.491000000    -1.809000000     3.438000000
H    -1.726000000    -1.402000000     3.846000000
H    -2.164000000    -2.640000000     3.093000000
O     3.240000000    -2.339000000    -5.859000000
H     3.598000000    -1.469000000    -6.034000000
H     3.764000000    -2.927000000    -6.403000000
O     1.824000000     2.944000000     4.460000000
H     1.713000000     2.917000000     3.509000000
H     0.931000000     2.952000000     4.805000000
O     2.679000000     3.352000000    -4.808000000
H     2.165000000     3.582000000    -5.582000000
H     2.302000000     2.526000000    -4.506000000
O    -2.548000000     6.919000000     4.485000000
H    -2.150000000     6.756000000     5.340000000
H    -2.339000000     6.139000000     3.971000000
O    -3.949000000     2.995000000     2.845000000
H    -3.198000000     3.079000000     2.258000000
H    -3.652000000     2.395000000     3.530000000
O     0.519000000     4.574000000     6.838000000
H    -0.055000000     4.352000000     6.105000000
H     0.993000000     3.764000000     7.026000000
O    -0.526000000    -6.650000000    -0.342000000
H    -1.088000000    -7.425000000    -0.373000000
H     0.337000000    -6.990000000    -0.107000000
O     3.602000000    -5.343000000    -1.531000000
H     3.517000000    -4.848000000    -2.346000000
H     3.375000000    -6.241000000    -1.771000000
O     3.068000000     0.397000000    -1.720000000
H     2.420000000     0.352000000    -1.017000000
H     3.384000000    -0.502000000    -1.811000000
O     0.410000000     1.476000000     7.685000000
H     0.061000000     1.417000000     6.796000000
H    -0.350000000     1.682000000     8.228000000
O    -7.000000000     3.503000000     0.268000000
H    -6.060000000     3.559000000     0.096000000
H    -7.364000000     4.291000000    -0.134000000
O     0.083000000    -1.375000000     4.653000000
H     0.923000000    -1.384000000     4.193000000
H     0.189000000    -2.015000000     5.357000000
O    -3.256000000    -6.104000000    -2.868000000
H    -3.909000000    -6.236000000    -2.180000000
H    -2.464000000    -5.841000000    -2.399000000
O    -4.995000000     1.863000000    -1.736000000
H    -4.879000000     2.569000000    -1.099000000
H    -5.761000000     1.382000000    -1.423000000
O    -3.802000000    -2.101000000     0.839000000
H    -4.174000000    -2.931000000     1.137000000
H    -3.380000000    -1.734000000     1.616000000
O    -1.301000000     5.649000000     1.637000000
H    -0.889000000     5.473000000     2.484000000
H    -1.583000000     4.789000000     1.325000000
O    -3.875000000    -0.045000000    -3.158000000
H    -3.409000000    -0.469000000    -2.437000000
H    -4.304000000     0.709000000    -2.754000000
O     1.620000000     0.738000000    -4.808000000
H     0.847000000     0.181000000    -4.895000000
H     2.015000000     0.472000000    -3.978000000
O     4.261000000    -0.757000000     1.865000000
H     5.163000000    -0.479000000     1.706000000
H     4.104000000    -1.443000000     1.216000000
