144
-2803.44088
O     2.872000000     1.219000000    -0.838000000
H     2.210000000     0.584000000    -0.564000000
H     2.369000000     1.947000000    -1.203000000
O    -1.717000000    -2.574000000     0.756000000
H    -1.348000000    -2.180000000    -0.034000000
H    -1.011000000    -2.525000000     1.400000000
O    -6.781000000     0.433000000     0.903000000
H    -6.870000000     0.632000000    -0.029000000
H    -6.207000000     1.121000000     1.240000000
O     4.692000000    -3.064000000     1.027000000
H     3.948000000    -3.646000000     0.870000000
H     5.460000000    -3.629000000     0.938000000
O     3.461000000     3.589000000     1.962000000
H     4.240000000     4.001000000     1.589000000
H     2.829000000     3.577000000     1.244000000
O    -2.185000000     3.251000000    -4.271000000
H    -2.000000000     4.083000000    -3.836000000
H    -1.403000000     2.721000000    -4.114000000
O    -1.132000000    -5.592000000     3.234000000
H    -0.758000000    -4.936000000     2.646000000
H    -1.350000000    -6.329000000     2.664000000
O    -2.494000000     4.935000000    -2.089000000
H    -1.903000000     5.660000000    -1.883000000
H    -2.357000000     4.306000000    -1.380000000
O     3.389000000     0.801000000     2.969000000
H     3.967000000     0.389000000     2.328000000
H     3.377000000     1.726000000     2.720000000
O     5.121000000     0.353000000    -2.108000000
H     4.177000000     0.333000000    -1.954000000
H     5.270000000     1.175000000    -2.576000000
O     4.940000000    -0.333000000     4.680000000
H     5.279000000     0.125000000     5.449000000
H     4.555000000     0.358000000     4.140000000
O     1.069000000     2.987000000    -2.256000000
H     0.825000000     2.092000000    -2.491000000
H     0.869000000     3.503000000    -3.038000000
O    -2.336000000     4.125000000     5.019000000
H    -1.891000000     3.282000000     4.932000000
H    -1.958000000     4.668000000     4.328000000
O     1.651000000     4.153000000     4.307000000
H     1.478000000     3.214000000     4.232000000
H     2.556000000     4.254000000     4.010000000
O    -2.273000000    -2.684000000    -4.039000000
H    -1.351000000    -2.557000000    -4.264000000
H    -2.729000000    -2.671000000    -4.880000000
O     3.865000000    -4.040000000    -3.961000000
H     4.240000000    -4.116000000    -4.838000000
H     3.252000000    -4.772000000    -3.898000000
O     0.785000000    -5.138000000     0.618000000
H     1.722000000    -5.319000000     0.539000000
H     0.380000000    -5.675000000    -0.063000000
O     6.977000000    -0.375000000     2.471000000
H     6.745000000    -0.424000000     3.398000000
H     6.159000000    -0.141000000     2.032000000
O    -6.707000000     0.451000000    -1.909000000
H    -7.006000000    -0.368000000    -2.303000000
H    -5.755000000     0.431000000    -2.008000000
O    -4.978000000     2.596000000     2.705000000
H    -4.547000000     1.905000000     3.208000000
H    -4.280000000     3.222000000     2.510000000
O    -0.124000000    -6.921000000    -1.346000000
H    -0.397000000    -7.770000000    -1.694000000
H    -0.534000000    -6.280000000    -1.926000000
O    -3.436000000     0.633000000     3.997000000
H    -2.603000000     1.103000000     4.038000000
H    -3.234000000    -0.171000000     3.519000000
O    -4.191000000    -1.254000000    -2.497000000
H    -4.485000000    -0.946000000    -3.355000000
H    -3.359000000    -1.694000000    -2.672000000
O    -4.477000000     2.089000000    -3.257000000
H    -3.704000000     2.491000000    -3.654000000
H    -4.550000000     1.236000000    -3.686000000
O    -0.732000000    -2.462000000     5.095000000
H    -0.048000000    -2.462000000     4.426000000
H    -0.650000000    -3.316000000     5.520000000
O    -3.288000000    -1.670000000     2.778000000
H    -3.009000000    -1.832000000     1.877000000
H    -3.187000000    -2.516000000     3.215000000
O    -1.347000000    -0.441000000    -6.570000000
H    -1.627000000    -1.354000000    -6.506000000
H    -2.163000000     0.057000000    -6.620000000
O     0.191000000     0.941000000    -4.048000000
H     0.014000000     0.008000000    -3.931000000
H     0.746000000     0.984000000    -4.826000000
O    -2.045000000    -4.889000000    -2.313000000
H    -2.696000000    -5.053000000    -1.631000000
H    -2.465000000    -4.259000000    -2.898000000
O     6.130000000    -4.100000000    -2.504000000
H     6.620000000    -4.722000000    -3.042000000
H     5.286000000    -4.012000000    -2.947000000
O    -5.336000000     6.922000000     0.648000000
H    -4.440000000     6.585000000     0.631000000
H    -5.285000000     7.760000000     0.188000000
O    -0.967000000     1.750000000     4.405000000
H    -0.168000000     1.367000000     4.767000000
H    -0.660000000     2.339000000     3.716000000
O    -0.569000000    -5.500000000    -4.479000000
H    -0.977000000    -6.244000000    -4.923000000
H    -1.060000000    -5.412000000    -3.661000000
O     3.236000000    -2.346000000     3.284000000
H     3.632000000    -1.587000000     3.714000000
H     3.754000000    -2.467000000     2.488000000
O     1.974000000    -2.339000000    -4.976000000
H     2.348000000    -1.790000000    -5.666000000
H     2.691000000    -2.916000000    -4.715000000
O     0.930000000     4.709000000    -0.037000000
H     0.819000000     4.308000000     0.825000000
H     0.693000000     4.017000000    -0.655000000
O     0.405000000     7.603000000    -0.306000000
H     0.521000000     7.917000000     0.591000000
H     0.615000000     6.670000000    -0.262000000
O    -0.785000000     5.506000000     3.197000000
H    -0.880000000     4.778000000     2.584000000
H     0.073000000     5.370000000     3.599000000
O     1.582000000     1.076000000     5.123000000
H     2.035000000     0.858000000     4.309000000
H     2.118000000     0.679000000     5.809000000
O     3.454000000    -5.624000000     0.669000000
H     4.341000000    -5.656000000     0.311000000
H     3.475000000    -6.226000000     1.413000000
O    -3.544000000    -4.901000000     0.072000000
H    -3.105000000    -5.512000000     0.664000000
H    -3.063000000    -4.080000000     0.175000000
O    -2.882000000     5.753000000     1.232000000
H    -2.644000000     4.901000000     0.864000000
H    -2.303000000     5.858000000     1.987000000
O     0.105000000    -3.738000000    -6.251000000
H    -0.212000000    -4.379000000    -5.615000000
H     0.812000000    -3.280000000    -5.797000000
O    -5.166000000     2.701000000    -0.363000000
H    -4.270000000     2.756000000    -0.032000000
H    -5.070000000     2.423000000    -1.274000000
O    -7.009000000     5.036000000    -0.865000000
H    -6.457000000     5.796000000    -0.677000000
H    -6.439000000     4.282000000    -0.714000000
O    -5.788000000    -2.843000000    -0.651000000
H    -5.413000000    -3.439000000    -0.002000000
H    -5.032000000    -2.499000000    -1.126000000
O     0.691000000    -3.143000000     2.821000000
H     0.776000000    -3.846000000     2.178000000
H     1.592000000    -2.904000000     3.036000000
O     4.560000000    -0.300000000     0.841000000
H     4.237000000    -1.141000000     0.517000000
H     4.248000000     0.339000000     0.200000000
