144
-2810.82138
O     4.186000000     5.263000000    -0.036000000
H     4.113000000     4.975000000     0.874000000
H     5.044000000     4.947000000    -0.319000000
O     5.025000000     0.659000000    -2.440000000
H     5.050000000     0.546000000    -3.390000000
H     4.151000000     1.008000000    -2.263000000
O    -3.667000000     1.099000000     0.183000000
H    -2.891000000     0.551000000     0.301000000
H    -3.319000000     1.973000000     0.004000000
O     2.325000000    -4.921000000    -2.403000000
H     2.756000000    -4.070000000    -2.320000000
H     1.599000000    -4.884000000    -1.780000000
O    -1.145000000    -0.375000000     6.256000000
H    -0.754000000    -1.142000000     5.837000000
H    -1.179000000    -0.601000000     7.185000000
O     4.671000000     3.803000000    -2.714000000
H     3.821000000     3.418000000    -2.501000000
H     5.168000000     3.756000000    -1.897000000
O     6.193000000     3.804000000    -0.452000000
H     6.702000000     3.263000000    -1.056000000
H     6.590000000     3.645000000     0.405000000
O     1.611000000     5.049000000    -0.812000000
H     2.529000000     5.253000000    -0.632000000
H     1.617000000     4.127000000    -1.071000000
O     3.418000000    -2.402000000    -1.993000000
H     3.190000000    -1.566000000    -2.400000000
H     3.947000000    -2.162000000    -1.233000000
O    -4.556000000    -5.543000000     3.645000000
H    -5.438000000    -5.813000000     3.390000000
H    -4.227000000    -5.054000000     2.891000000
O    -3.620000000    -2.674000000    -3.185000000
H    -3.981000000    -3.164000000    -3.923000000
H    -2.803000000    -3.126000000    -2.973000000
O    -4.234000000     0.016000000     5.522000000
H    -4.737000000    -0.274000000     4.761000000
H    -3.450000000    -0.533000000     5.514000000
O     4.202000000     1.462000000     0.419000000
H     3.366000000     1.526000000    -0.042000000
H     4.798000000     2.015000000    -0.087000000
O    -2.984000000     3.840000000     0.156000000
H    -2.218000000     4.283000000    -0.208000000
H    -3.209000000     4.350000000     0.934000000
O    -1.263000000    -3.869000000    -2.195000000
H    -0.612000000    -3.558000000    -2.824000000
H    -0.772000000    -4.439000000    -1.603000000
O     1.742000000     0.453000000     2.978000000
H     1.183000000     0.297000000     2.216000000
H     2.325000000    -0.306000000     3.006000000
O     1.252000000     3.514000000    -4.807000000
H     1.751000000     4.280000000    -4.523000000
H     1.162000000     2.981000000    -4.017000000
O    -3.887000000    -4.529000000     1.031000000
H    -3.709000000    -3.773000000     0.471000000
H    -4.629000000    -4.967000000     0.615000000
O     2.364000000     1.731000000    -6.482000000
H     1.878000000     2.334000000    -5.920000000
H     3.104000000     1.447000000    -5.945000000
O     5.625000000     2.826000000    -5.279000000
H     6.383000000     3.335000000    -5.566000000
H     5.328000000     3.266000000    -4.482000000
O     0.106000000    -5.676000000    -0.467000000
H    -0.244000000    -6.389000000    -1.001000000
H     0.186000000    -6.050000000     0.410000000
O     5.158000000     0.122000000     2.683000000
H     4.810000000     0.504000000     1.877000000
H     4.493000000    -0.511000000     2.954000000
O    -5.496000000     0.984000000     2.944000000
H    -5.190000000     1.811000000     3.316000000
H    -5.005000000     0.893000000     2.128000000
O     3.100000000     5.683000000    -4.783000000
H     3.190000000     6.275000000    -4.037000000
H     3.918000000     5.185000000    -4.794000000
O     3.348000000     5.480000000     2.562000000
H     4.088000000     5.845000000     3.047000000
H     3.348000000     4.550000000     2.791000000
O    -0.212000000    -0.192000000    -6.158000000
H     0.149000000     0.611000000    -6.534000000
H    -0.233000000    -0.811000000    -6.888000000
O    -5.062000000    -2.043000000    -0.537000000
H    -4.889000000    -2.323000000    -1.436000000
H    -5.548000000    -1.224000000    -0.630000000
O     0.275000000    -2.507000000     5.548000000
H    -0.149000000    -3.213000000     6.037000000
H     1.146000000    -2.847000000     5.345000000
O    -1.383000000     4.384000000     4.081000000
H    -0.679000000     3.841000000     4.437000000
H    -1.077000000     4.630000000     3.208000000
O     5.683000000    -0.286000000    -5.450000000
H     5.655000000     0.581000000    -5.854000000
H     5.460000000    -0.889000000    -6.159000000
O     1.270000000    -4.455000000     2.041000000
H     0.710000000    -4.894000000     2.681000000
H     0.697000000    -3.814000000     1.620000000
O     7.066000000    -0.777000000    -1.667000000
H     6.308000000    -0.316000000    -2.028000000
H     6.689000000    -1.492000000    -1.154000000
O    -1.425000000    -4.972000000     2.354000000
H    -1.255000000    -5.897000000     2.179000000
H    -2.216000000    -4.775000000     1.851000000
O     0.084000000     1.625000000     4.822000000
H    -0.510000000     0.987000000     5.218000000
H     0.651000000     1.104000000     4.254000000
O     3.489000000    -4.193000000    -5.176000000
H     2.932000000    -4.915000000    -4.883000000
H     2.945000000    -3.413000000    -5.070000000
O    -0.610000000    -2.212000000    -4.245000000
H    -0.470000000    -2.801000000    -4.987000000
H    -0.771000000    -1.358000000    -4.645000000
O     0.434000000     5.249000000     1.860000000
H     0.681000000     5.022000000     0.963000000
H     1.224000000     5.636000000     2.235000000
O    -5.545000000    -1.913000000     3.769000000
H    -5.650000000    -2.790000000     4.138000000
H    -5.973000000    -1.960000000     2.914000000
O     3.252000000     2.937000000     3.549000000
H     2.573000000     3.231000000     4.156000000
H     2.940000000     2.089000000     3.233000000
O     5.649000000    -3.535000000    -3.075000000
H     5.180000000    -2.719000000    -2.899000000
H     5.210000000    -3.904000000    -3.841000000
O     0.685000000     7.070000000    -2.147000000
H    -0.086000000     7.198000000    -1.596000000
H     1.098000000     6.278000000    -1.801000000
O     2.200000000    -1.279000000    -4.647000000
H     1.346000000    -1.665000000    -4.447000000
H     2.163000000    -0.404000000    -4.262000000
O    -2.262000000     2.045000000    -2.280000000
H    -2.347000000     2.919000000    -2.661000000
H    -1.422000000     2.063000000    -1.822000000
O    -3.664000000     0.124000000    -3.742000000
H    -3.199000000    -0.694000000    -3.567000000
H    -3.266000000     0.759000000    -3.146000000
O     2.653000000    -1.573000000    -7.499000000
H     2.428000000    -1.538000000    -6.569000000
H     2.142000000    -0.866000000    -7.895000000
O    -4.075000000     3.201000000     3.680000000
H    -3.417000000     2.999000000     4.345000000
H    -3.687000000     3.909000000     3.166000000
O    -5.580000000     0.798000000    -1.892000000
H    -5.031000000     0.438000000    -2.589000000
H    -4.970000000     0.987000000    -1.179000000
O     2.779000000    -2.108000000     2.954000000
H     2.275000000    -2.603000000     2.308000000
H     2.872000000    -2.707000000     3.695000000
