144
-2803.52240
O     4.967000000     4.714000000     0.555000000
H     4.820000000     3.799000000     0.316000000
H     5.918000000     4.817000000     0.539000000
O     5.304000000     0.152000000    -2.741000000
H     5.729000000     0.260000000    -3.591000000
H     4.393000000     0.402000000    -2.895000000
O    -2.585000000     1.196000000    -1.462000000
H    -1.852000000     0.582000000    -1.518000000
H    -2.389000000     1.732000000    -0.694000000
O    -3.533000000     5.832000000     2.868000000
H    -2.645000000     6.157000000     3.019000000
H    -3.550000000     4.975000000     3.294000000
O     2.942000000    -4.212000000    -2.199000000
H     2.354000000    -3.512000000    -2.480000000
H     3.602000000    -3.771000000    -1.664000000
O     0.671000000    -0.672000000     5.373000000
H     0.218000000    -1.454000000     5.057000000
H     0.713000000    -0.786000000     6.322000000
O     4.234000000     3.475000000    -3.725000000
H     3.753000000     2.693000000    -3.455000000
H     5.058000000     3.428000000    -3.240000000
O     6.682000000     3.820000000    -2.695000000
H     6.695000000     4.684000000    -2.285000000
H     7.604000000     3.611000000    -2.844000000
O     2.116000000     4.828000000    -1.863000000
H     2.177000000     4.990000000    -0.921000000
H     2.373000000     3.911000000    -1.965000000
O     5.599000000    -0.367000000     0.734000000
H     5.418000000     0.555000000     0.551000000
H     4.900000000    -0.634000000     1.332000000
O    -3.791000000    -4.748000000     4.227000000
H    -4.720000000    -4.867000000     4.030000000
H    -3.454000000    -4.236000000     3.491000000
O    -3.636000000    -1.700000000    -4.150000000
H    -4.454000000    -1.939000000    -3.713000000
H    -2.962000000    -2.195000000    -3.684000000
O    -1.451000000     1.594000000     5.672000000
H    -1.960000000     0.786000000     5.733000000
H    -0.539000000     1.303000000     5.666000000
O     4.612000000     2.259000000    -0.434000000
H     3.827000000     2.084000000    -0.953000000
H     5.339000000     2.071000000    -1.028000000
O    -2.180000000     3.595000000    -0.088000000
H    -1.387000000     4.053000000    -0.367000000
H    -2.833000000     4.287000000     0.014000000
O    -0.641000000     4.725000000    -2.217000000
H     0.308000000     4.620000000    -2.144000000
H    -0.776000000     5.673000000    -2.233000000
O    -1.368000000    -2.938000000    -2.956000000
H    -0.973000000    -2.306000000    -3.557000000
H    -0.885000000    -3.749000000    -3.110000000
O     3.513000000     1.412000000     2.505000000
H     3.066000000     1.767000000     1.737000000
H     3.296000000     0.480000000     2.498000000
O     1.522000000     3.332000000    -4.600000000
H     1.382000000     2.923000000    -3.747000000
H     2.437000000     3.615000000    -4.583000000
O    -3.847000000    -3.964000000     0.838000000
H    -3.777000000    -3.882000000    -0.113000000
H    -4.583000000    -4.561000000     0.974000000
O     2.763000000     1.109000000    -5.463000000
H     2.465000000     0.565000000    -4.734000000
H     2.268000000     1.923000000    -5.372000000
O     2.591000000    -2.358000000     0.163000000
H     2.693000000    -2.278000000     1.112000000
H     1.682000000    -2.107000000    -0.002000000
O    -5.223000000    -0.435000000     1.816000000
H    -5.734000000    -0.860000000     1.127000000
H    -4.654000000    -1.128000000     2.153000000
O     5.253000000     5.963000000    -4.594000000
H     4.730000000     6.613000000    -4.125000000
H     4.928000000     5.120000000    -4.277000000
O     0.998000000    -5.465000000    -0.567000000
H     1.541000000    -4.816000000    -1.014000000
H     0.391000000    -4.946000000    -0.038000000
O     4.391000000    -1.086000000    -6.175000000
H     3.900000000    -1.878000000    -5.954000000
H     3.846000000    -0.368000000    -5.854000000
O    -5.144000000    -1.872000000     4.618000000
H    -5.311000000    -2.671000000     4.118000000
H    -5.979000000    -1.404000000     4.607000000
O    -0.211000000    -3.609000000     4.527000000
H     0.074000000    -4.104000000     5.295000000
H     0.216000000    -4.045000000     3.790000000
O     0.413000000     4.219000000     3.924000000
H     0.698000000     3.426000000     4.378000000
H     1.117000000     4.849000000     4.078000000
O    -0.916000000     6.484000000     2.989000000
H    -0.442000000     7.197000000     3.415000000
H    -0.661000000     5.701000000     3.476000000
O     2.468000000    -3.850000000     2.735000000
H     2.486000000    -4.364000000     3.542000000
H     2.412000000    -4.502000000     2.036000000
O    -0.523000000    -4.736000000     1.485000000
H    -0.712000000    -5.399000000     2.149000000
H    -1.372000000    -4.337000000     1.296000000
O     1.596000000     1.902000000     4.704000000
H     1.435000000     0.967000000     4.829000000
H     2.462000000     1.943000000     4.298000000
O     3.291000000    -3.471000000    -6.190000000
H     2.988000000    -4.149000000    -6.794000000
H     2.520000000    -3.258000000    -5.663000000
O    -0.954000000    -1.388000000    -5.048000000
H    -1.708000000    -1.674000000    -5.563000000
H    -0.903000000    -0.444000000    -5.203000000
O     1.985000000     4.888000000     0.857000000
H     1.813000000     4.852000000     1.798000000
H     2.940000000     4.905000000     0.788000000
O    -2.456000000    -1.282000000     5.377000000
H    -1.922000000    -1.967000000     4.976000000
H    -3.339000000    -1.442000000     5.045000000
O     5.184000000    -2.261000000    -1.330000000
H     5.425000000    -1.458000000    -1.792000000
H     4.560000000    -1.976000000    -0.662000000
O    -0.123000000    -5.255000000    -3.715000000
H    -0.450000000    -5.997000000    -3.207000000
H     0.457000000    -5.649000000    -4.367000000
O     3.198000000     1.187000000    -8.190000000
H     2.841000000     1.487000000    -7.354000000
H     4.146000000     1.266000000    -8.088000000
O    -3.466000000    -4.999000000    -2.374000000
H    -2.891000000    -5.754000000    -2.246000000
H    -2.881000000    -4.299000000    -2.665000000
O     2.425000000     7.381000000    -2.889000000
H     1.784000000     8.010000000    -2.558000000
H     2.173000000     6.549000000    -2.487000000
O     1.593000000    -2.099000000    -4.377000000
H     0.684000000    -1.876000000    -4.575000000
H     1.943000000    -1.317000000    -3.949000000
O    -1.951000000     3.208000000    -3.825000000
H    -1.231000000     3.622000000    -3.349000000
H    -2.217000000     2.476000000    -3.267000000
O    -4.842000000    -0.789000000    -1.403000000
H    -4.236000000    -0.100000000    -1.674000000
H    -4.382000000    -1.252000000    -0.703000000
O    -4.910000000     2.016000000     3.355000000
H    -5.018000000     1.241000000     2.804000000
H    -3.996000000     2.271000000     3.234000000
O    -2.269000000     3.357000000     3.693000000
H    -1.554000000     3.720000000     3.171000000
H    -1.834000000     2.923000000     4.427000000
O     3.888000000    -1.468000000     2.854000000
H     3.492000000    -2.332000000     2.736000000
H     4.059000000    -1.410000000     3.794000000
