144
-2785.43163
O    -0.397000000     1.849000000     5.907000000
H    -0.903000000     1.403000000     6.586000000
H     0.465000000     1.985000000     6.299000000
O     7.372000000     1.270000000    -1.097000000
H     7.404000000     0.892000000    -0.218000000
H     6.559000000     0.934000000    -1.473000000
O    -1.181000000     5.519000000     0.812000000
H    -1.117000000     5.475000000    -0.142000000
H    -1.915000000     4.944000000     1.030000000
O     5.632000000    -0.131000000    -2.447000000
H     5.725000000     0.308000000    -3.292000000
H     4.687000000    -0.171000000    -2.300000000
O     2.914000000     0.919000000     2.186000000
H     1.996000000     0.943000000     1.916000000
H     3.197000000     0.025000000     1.994000000
O     5.526000000     5.121000000    -0.568000000
H     4.991000000     5.389000000     0.179000000
H     4.930000000     4.612000000    -1.118000000
O    -4.141000000     5.333000000     2.564000000
H    -4.310000000     6.057000000     1.962000000
H    -3.261000000     5.502000000     2.901000000
O    -0.252000000     5.929000000    -4.106000000
H    -1.084000000     6.181000000    -4.507000000
H    -0.255000000     4.972000000    -4.130000000
O    -3.197000000    -3.890000000     2.299000000
H    -3.496000000    -3.478000000     1.488000000
H    -2.242000000    -3.887000000     2.232000000
O     3.200000000    -5.248000000     1.083000000
H     3.303000000    -4.711000000     0.297000000
H     2.756000000    -4.675000000     1.708000000
O     7.612000000    -1.581000000    -1.443000000
H     6.830000000    -1.112000000    -1.732000000
H     8.255000000    -0.892000000    -1.272000000
O     3.244000000     3.086000000    -0.878000000
H     2.427000000     3.153000000    -0.384000000
H     3.001000000     2.628000000    -1.683000000
O     5.446000000     3.763000000    -6.288000000
H     6.092000000     3.542000000    -5.617000000
H     4.639000000     3.344000000    -5.991000000
O    -1.567000000    -2.267000000     6.257000000
H    -1.499000000    -1.675000000     7.006000000
H    -0.906000000    -1.951000000     5.641000000
O    -2.334000000     1.680000000    -2.413000000
H    -2.548000000     1.034000000    -3.085000000
H    -2.172000000     1.161000000    -1.625000000
O    -6.595000000    -1.284000000     1.120000000
H    -5.946000000    -1.001000000     0.475000000
H    -6.190000000    -1.095000000     1.966000000
O     1.535000000     1.359000000    -6.535000000
H     1.476000000     0.426000000    -6.327000000
H     2.462000000     1.570000000    -6.426000000
O     5.777000000     1.247000000    -4.916000000
H     4.956000000     1.722000000    -5.047000000
H     6.451000000     1.927000000    -4.924000000
O     2.355000000    -7.035000000    -0.821000000
H     2.262000000    -6.131000000    -1.122000000
H     3.077000000    -7.005000000    -0.193000000
O    -2.538000000    -3.005000000    -3.096000000
H    -1.977000000    -2.257000000    -3.302000000
H    -3.226000000    -2.978000000    -3.761000000
O    -0.037000000     3.181000000    -3.299000000
H    -0.537000000     2.383000000    -3.469000000
H     0.828000000     2.870000000    -3.031000000
O    -5.790000000    -0.599000000     3.689000000
H    -5.242000000     0.175000000     3.815000000
H    -5.169000000    -1.325000000     3.632000000
O    -4.065000000    -2.518000000     4.609000000
H    -3.873000000    -3.202000000     3.968000000
H    -3.350000000    -2.577000000     5.243000000
O     3.789000000    -2.277000000    -1.474000000
H     4.598000000    -2.451000000    -1.954000000
H     3.355000000    -1.588000000    -1.977000000
O     2.326000000    -4.593000000    -1.820000000
H     1.527000000    -4.184000000    -2.153000000
H     2.979000000    -3.893000000    -1.839000000
O     1.596000000     4.218000000     1.348000000
H     1.145000000     4.978000000     0.980000000
H     1.087000000     3.992000000     2.127000000
O     2.808000000     5.491000000    -5.178000000
H     2.855000000     5.624000000    -6.125000000
H     2.749000000     6.375000000    -4.815000000
O    -5.110000000    -0.273000000     6.471000000
H    -4.792000000     0.533000000     6.064000000
H    -5.193000000    -0.891000000     5.745000000
O     0.291000000     3.599000000     3.688000000
H    -0.465000000     4.139000000     3.916000000
H     0.103000000     2.746000000     4.081000000
O    -3.460000000    -6.379000000     3.383000000
H    -3.137000000    -5.560000000     3.008000000
H    -2.737000000    -6.698000000     3.923000000
O     4.890000000     2.576000000     1.431000000
H     4.012000000     2.297000000     1.689000000
H     4.813000000     2.781000000     0.499000000
O     3.994000000    -1.458000000     1.432000000
H     3.536000000    -1.513000000     0.593000000
H     4.824000000    -1.910000000     1.282000000
O    -3.533000000    -2.876000000    -0.506000000
H    -3.594000000    -1.970000000    -0.808000000
H    -3.332000000    -3.378000000    -1.296000000
O     1.578000000    -0.936000000    -5.346000000
H     2.059000000    -0.644000000    -4.572000000
H     1.965000000    -1.785000000    -5.562000000
O     0.159000000    -3.854000000    -2.887000000
H    -0.688000000    -4.169000000    -2.570000000
H     0.170000000    -4.090000000    -3.815000000
O     3.500000000     2.837000000    -4.763000000
H     3.071000000     3.693000000    -4.795000000
H     3.182000000     2.440000000    -3.952000000
O     5.543000000     5.988000000    -3.654000000
H     4.809000000     5.397000000    -3.485000000
H     5.660000000     5.958000000    -4.604000000
O     3.630000000     6.039000000     1.128000000
H     3.046000000     5.283000000     1.066000000
H     3.883000000     6.072000000     2.051000000
O    -0.582000000    -5.721000000     2.142000000
H    -0.641000000    -6.413000000     2.802000000
H    -0.599000000    -6.186000000     1.306000000
O     1.166000000    -2.490000000     4.989000000
H     1.853000000    -1.945000000     4.606000000
H     1.243000000    -2.345000000     5.932000000
O    -4.457000000     0.076000000    -0.919000000
H    -5.300000000     0.209000000    -1.353000000
H    -4.101000000     0.959000000    -0.811000000
O     0.806000000     3.899000000    -6.955000000
H     1.004000000     2.962000000    -6.982000000
H     0.768000000     4.109000000    -6.022000000
O     1.676000000    -4.101000000     2.987000000
H     0.876000000    -4.424000000     2.574000000
H     1.381000000    -3.709000000     3.809000000
O    -4.596000000     2.716000000     2.550000000
H    -5.032000000     2.599000000     1.706000000
H    -4.455000000     3.660000000     2.617000000
O    -1.171000000    -0.939000000    -4.991000000
H    -0.241000000    -0.855000000    -5.201000000
H    -1.614000000    -0.388000000    -5.635000000
O    -0.601000000    -4.794000000     6.331000000
H    -0.146000000    -3.968000000     6.164000000
H    -1.519000000    -4.544000000     6.437000000
O    -4.297000000     1.728000000     4.986000000
H    -3.764000000     2.374000000     5.451000000
H    -4.351000000     2.063000000     4.091000000
O    -3.156000000     3.943000000    -1.369000000
H    -3.030000000     4.576000000    -2.076000000
H    -2.639000000     3.182000000    -1.634000000
