144
-2821.27873
O    -2.776000000     2.629000000    -2.509000000
H    -2.505000000     3.390000000    -3.023000000
H    -3.554000000     2.924000000    -2.037000000
O     1.716000000    -3.649000000    -2.238000000
H     0.979000000    -3.790000000    -1.643000000
H     2.311000000    -3.079000000    -1.751000000
O     1.678000000    -6.035000000     0.166000000
H     2.625000000    -5.982000000     0.295000000
H     1.391000000    -5.122000000     0.123000000
O    -2.962000000     2.468000000     6.450000000
H    -3.305000000     2.347000000     5.564000000
H    -2.188000000     3.019000000     6.334000000
O     1.103000000     3.897000000    -1.925000000
H     0.538000000     4.668000000    -1.873000000
H     0.785000000     3.419000000    -2.690000000
O     2.856000000    -5.418000000    -3.824000000
H     2.344000000    -4.741000000    -3.380000000
H     3.756000000    -5.096000000    -3.792000000
O    -0.083000000    -0.984000000    -6.761000000
H     0.222000000    -1.314000000    -7.606000000
H     0.169000000    -1.661000000    -6.133000000
O     1.745000000     2.410000000     0.275000000
H     1.908000000     2.945000000    -0.501000000
H     1.171000000     1.709000000    -0.033000000
O    -5.563000000     1.151000000     3.844000000
H    -4.805000000     0.581000000     3.713000000
H    -5.680000000     1.590000000     3.001000000
O    -4.757000000     4.616000000     1.482000000
H    -5.234000000     5.197000000     2.075000000
H    -4.696000000     5.107000000     0.663000000
O    -5.853000000    -0.351000000    -1.664000000
H    -5.175000000    -0.552000000    -2.309000000
H    -5.446000000    -0.546000000    -0.819000000
O    -2.560000000    -0.448000000    -5.616000000
H    -1.736000000    -0.672000000    -6.047000000
H    -2.695000000     0.477000000    -5.823000000
O    -0.615000000     6.126000000    -0.962000000
H    -1.290000000     5.792000000    -1.553000000
H    -0.640000000     5.533000000    -0.211000000
O    -0.151000000    -0.222000000     6.033000000
H    -0.156000000     0.304000000     6.832000000
H    -1.039000000    -0.575000000     5.973000000
O    -0.385000000    -3.886000000    -0.121000000
H    -0.458000000    -4.100000000     0.809000000
H    -1.097000000    -3.267000000    -0.281000000
O     3.583000000    -3.852000000     2.069000000
H     3.303000000    -3.085000000     1.569000000
H     2.910000000    -3.957000000     2.743000000
O     4.372000000    -6.102000000     0.726000000
H     4.281000000    -5.455000000     1.425000000
H     4.866000000    -5.648000000     0.043000000
O     6.036000000    -2.159000000    -1.657000000
H     6.759000000    -1.731000000    -1.199000000
H     5.262000000    -1.943000000    -1.138000000
O     1.489000000     1.786000000    -4.427000000
H     2.194000000     2.264000000    -4.863000000
H     1.819000000     0.891000000    -4.348000000
O     4.830000000    -3.401000000    -3.890000000
H     5.294000000    -3.018000000    -3.146000000
H     5.495000000    -3.478000000    -4.574000000
O     0.261000000     3.313000000     3.845000000
H     0.511000000     3.222000000     4.765000000
H     1.086000000     3.484000000     3.389000000
O    -4.885000000    -0.886000000     1.058000000
H    -5.447000000    -0.418000000     1.675000000
H    -4.006000000    -0.547000000     1.229000000
O    -5.361000000    -3.745000000     0.610000000
H    -6.300000000    -3.705000000     0.789000000
H    -5.071000000    -2.833000000     0.641000000
O     5.896000000     0.165000000    -4.677000000
H     5.206000000     0.035000000    -4.026000000
H     6.082000000    -0.714000000    -5.009000000
O     2.281000000     0.539000000     4.918000000
H     2.437000000     1.461000000     4.717000000
H     1.355000000     0.499000000     5.158000000
O    -3.326000000    -0.410000000     3.686000000
H    -3.186000000    -0.748000000     4.570000000
H    -3.022000000    -1.112000000     3.110000000
O    -6.002000000     2.303000000     1.421000000
H    -6.498000000     2.138000000     0.619000000
H    -5.738000000     3.220000000     1.355000000
O    -5.803000000     4.009000000    -2.375000000
H    -6.356000000     3.319000000    -2.009000000
H    -5.608000000     3.715000000    -3.265000000
O    -1.257000000     2.104000000    -4.969000000
H    -1.631000000     1.835000000    -4.130000000
H    -0.315000000     2.153000000    -4.806000000
O    -2.586000000    -2.931000000     2.560000000
H    -2.274000000    -2.738000000     1.676000000
H    -1.789000000    -3.082000000     3.067000000
O    -5.017000000     4.389000000     4.792000000
H    -4.502000000     3.804000000     4.236000000
H    -5.673000000     3.821000000     5.195000000
O     3.103000000    -0.772000000    -4.079000000
H     3.195000000    -1.050000000    -3.168000000
H     3.252000000    -1.568000000    -4.589000000
O     8.029000000    -1.045000000     1.309000000
H     7.553000000    -1.871000000     1.391000000
H     7.358000000    -0.402000000     1.080000000
O     2.278000000    -2.396000000     6.436000000
H     2.033000000    -1.541000000     6.083000000
H     2.243000000    -2.985000000     5.682000000
O     4.075000000     2.925000000    -2.725000000
H     4.319000000     2.067000000    -2.379000000
H     3.118000000     2.924000000    -2.714000000
O     6.560000000    -3.381000000     1.746000000
H     7.272000000    -4.006000000     1.886000000
H     5.942000000    -3.845000000     1.182000000
O    -2.482000000    -1.482000000     5.995000000
H    -2.876000000    -1.034000000     6.743000000
H    -2.697000000    -2.405000000     6.127000000
O    -2.558000000    -2.427000000    -0.712000000
H    -3.401000000    -2.785000000    -0.989000000
H    -2.425000000    -1.663000000    -1.273000000
O    -2.667000000     3.218000000     3.622000000
H    -1.801000000     3.120000000     4.018000000
H    -2.532000000     3.017000000     2.696000000
O     4.299000000     3.300000000     1.101000000
H     4.256000000     4.256000000     1.102000000
H     3.397000000     3.020000000     0.946000000
O     5.905000000    -4.779000000    -1.125000000
H     6.777000000    -5.054000000    -1.407000000
H     5.815000000    -3.887000000    -1.460000000
O    -7.257000000     1.945000000    -0.791000000
H    -8.180000000     1.707000000    -0.874000000
H    -6.783000000     1.199000000    -1.157000000
O     6.279000000     1.483000000     1.526000000
H     5.619000000     2.153000000     1.349000000
H     5.794000000     0.774000000     1.946000000
O     5.194000000    -1.237000000     2.478000000
H     5.650000000    -2.049000000     2.256000000
H     4.398000000    -1.256000000     1.947000000
O    -3.378000000    -0.689000000    -2.980000000
H    -2.991000000    -0.907000000    -3.828000000
H    -3.140000000     0.227000000    -2.837000000
O    -0.324000000     4.441000000     1.332000000
H     0.161000000     3.738000000     0.899000000
H    -0.287000000     4.220000000     2.262000000
O     4.877000000     0.024000000     4.916000000
H     5.196000000    -0.446000000     4.146000000
H     3.938000000    -0.162000000     4.939000000
O     1.099000000    -2.846000000    -5.001000000
H     0.217000000    -3.193000000    -4.868000000
H     1.530000000    -2.955000000    -4.154000000
