144
-2802.13498
O     4.515000000    -4.068000000     1.498000000
H     3.714000000    -4.392000000     1.086000000
H     4.400000000    -4.260000000     2.428000000
O     1.440000000    -5.911000000    -6.048000000
H     1.867000000    -5.099000000    -5.774000000
H     0.640000000    -5.950000000    -5.523000000
O     4.867000000    -3.786000000    -1.898000000
H     5.205000000    -2.902000000    -2.041000000
H     3.949000000    -3.656000000    -1.659000000
O    -0.954000000     5.906000000     0.776000000
H    -0.072000000     6.223000000     0.971000000
H    -0.980000000     5.843000000    -0.179000000
O     3.774000000     0.778000000     4.556000000
H     2.973000000     0.734000000     4.034000000
H     4.408000000     0.254000000     4.067000000
O    -5.438000000    -0.934000000     0.158000000
H    -6.248000000    -0.458000000    -0.023000000
H    -5.018000000    -1.026000000    -0.697000000
O    -3.854000000    -3.584000000     2.125000000
H    -3.604000000    -3.746000000     3.034000000
H    -3.046000000    -3.712000000     1.628000000
O     2.607000000     2.359000000    -3.360000000
H     2.863000000     1.574000000    -2.876000000
H     1.685000000     2.217000000    -3.576000000
O     3.566000000    -4.084000000     4.279000000
H     3.987000000    -4.053000000     5.138000000
H     3.579000000    -5.011000000     4.040000000
O     3.685000000    -3.796000000    -4.876000000
H     4.321000000    -3.100000000    -5.038000000
H     3.885000000    -4.103000000    -3.991000000
O    -1.688000000    -2.853000000    -2.329000000
H    -2.078000000    -3.725000000    -2.271000000
H    -0.744000000    -3.012000000    -2.317000000
O    -2.973000000    -0.500000000    -1.424000000
H    -2.624000000    -1.353000000    -1.681000000
H    -2.255000000    -0.081000000    -0.949000000
O    -4.370000000    -0.741000000     2.930000000
H    -4.374000000    -0.435000000     2.023000000
H    -4.017000000    -1.629000000     2.882000000
O    -0.430000000     1.765000000    -4.356000000
H    -0.943000000     2.361000000    -4.902000000
H    -0.962000000     0.971000000    -4.303000000
O     1.543000000     6.765000000     1.872000000
H     2.370000000     7.030000000     1.469000000
H     1.784000000     6.495000000     2.758000000
O     1.099000000     2.669000000     4.679000000
H     0.358000000     3.182000000     4.357000000
H     1.569000000     2.405000000     3.888000000
O    -1.273000000    -0.827000000    -4.473000000
H    -0.363000000    -1.094000000    -4.596000000
H    -1.727000000    -1.631000000    -4.220000000
O    -3.665000000     1.449000000    -4.868000000
H    -3.415000000     0.788000000    -4.223000000
H    -4.517000000     1.157000000    -5.192000000
O     3.939000000     1.281000000     0.046000000
H     3.572000000     1.063000000    -0.811000000
H     4.870000000     1.073000000    -0.033000000
O     5.321000000    -1.543000000    -5.441000000
H     5.286000000    -1.865000000    -6.342000000
H     5.606000000    -0.633000000    -5.523000000
O     0.633000000    -4.451000000    -3.657000000
H     0.878000000    -3.647000000    -4.114000000
H     0.991000000    -4.344000000    -2.775000000
O    -0.565000000    -6.644000000    -4.322000000
H    -1.334000000    -6.483000000    -4.869000000
H    -0.334000000    -5.783000000    -3.975000000
O     2.174000000     1.291000000     2.379000000
H     1.500000000     0.792000000     1.917000000
H     2.796000000     1.543000000     1.696000000
O     1.752000000    -7.194000000    -2.437000000
H     1.407000000    -6.716000000    -3.192000000
H     2.121000000    -7.995000000    -2.808000000
O    -0.893000000    -8.033000000    -1.252000000
H    -1.022000000    -8.981000000    -1.226000000
H     0.057000000    -7.921000000    -1.283000000
O    -2.589000000    -0.498000000     5.304000000
H    -3.057000000    -0.302000000     4.492000000
H    -2.953000000     0.114000000     5.944000000
O    -2.130000000     3.231000000    -6.064000000
H    -2.655000000     2.617000000    -5.549000000
H    -2.764000000     3.864000000    -6.400000000
O     5.661000000    -1.137000000    -2.815000000
H     6.587000000    -0.963000000    -2.650000000
H     5.587000000    -1.155000000    -3.769000000
O    -1.184000000    -4.179000000     1.334000000
H    -0.800000000    -3.955000000     0.486000000
H    -0.513000000    -3.936000000     1.972000000
O    -4.535000000     2.068000000    -0.295000000
H    -4.085000000     1.228000000    -0.388000000
H    -5.266000000     1.885000000     0.294000000
O    -2.252000000    -6.793000000     0.965000000
H    -1.708000000    -7.356000000     0.414000000
H    -1.716000000    -6.014000000     1.115000000
O     1.104000000    -1.744000000    -4.640000000
H     1.591000000    -1.457000000    -5.412000000
H     1.717000000    -1.630000000    -3.914000000
O     1.010000000     3.802000000    -5.842000000
H     1.044000000     2.881000000    -5.584000000
H     0.139000000     4.093000000    -5.575000000
O    -1.450000000     3.879000000     6.871000000
H    -0.909000000     4.652000000     6.711000000
H    -2.085000000     3.880000000     6.154000000
O    -4.179000000     4.651000000     1.984000000
H    -4.008000000     4.790000000     1.053000000
H    -4.576000000     3.781000000     2.027000000
O     3.245000000     0.062000000    -2.361000000
H     2.883000000    -0.750000000    -2.008000000
H     4.055000000    -0.205000000    -2.796000000
O    -0.920000000    -2.390000000     6.203000000
H    -1.122000000    -2.847000000     5.387000000
H    -1.324000000    -1.528000000     6.102000000
O     5.573000000    -6.031000000    -0.420000000
H     4.794000000    -5.725000000     0.044000000
H     5.712000000    -5.382000000    -1.110000000
O     7.498000000    -3.639000000    -2.705000000
H     6.584000000    -3.689000000    -2.424000000
H     7.763000000    -4.551000000    -2.825000000
O     0.690000000    -3.939000000     3.278000000
H     0.665000000    -4.847000000     3.581000000
H     1.484000000    -3.577000000     3.671000000
O    -6.489000000     1.423000000     1.718000000
H    -7.014000000     0.673000000     2.000000000
H    -7.106000000     2.155000000     1.706000000
O     1.325000000     4.116000000    -1.455000000
H     1.595000000     3.273000000    -1.820000000
H     2.061000000     4.386000000    -0.906000000
O    -1.057000000     5.232000000    -1.925000000
H    -0.401000000     4.640000000    -1.556000000
H    -1.322000000     4.814000000    -2.744000000
O     2.655000000    -5.667000000    -0.126000000
H     1.969000000    -4.999000000    -0.113000000
H     2.540000000    -6.111000000    -0.967000000
O    -4.218000000     4.705000000    -0.964000000
H    -4.202000000     3.783000000    -0.706000000
H    -3.322000000     4.890000000    -1.247000000
O    -0.164000000     4.640000000     3.175000000
H    -0.615000000     4.937000000     2.385000000
H     0.518000000     5.296000000     3.322000000
O     5.433000000    -1.600000000     2.150000000
H     4.959000000    -1.045000000     1.530000000
H     5.299000000    -2.490000000     1.826000000
O    -2.722000000     4.236000000     4.300000000
H    -1.880000000     4.314000000     3.851000000
H    -3.373000000     4.307000000     3.602000000
