144
-2778.99827
O     2.311000000     1.024000000     2.043000000
H     1.764000000     0.682000000     1.336000000
H     2.619000000     0.245000000     2.507000000
O     3.786000000    -6.589000000    -1.285000000
H     2.906000000    -6.264000000    -1.094000000
H     4.023000000    -7.106000000    -0.516000000
O     5.432000000    -3.629000000    -6.447000000
H     4.767000000    -3.330000000    -7.067000000
H     5.373000000    -3.013000000    -5.716000000
O     4.712000000    -1.526000000    -4.524000000
H     4.628000000    -0.799000000    -5.141000000
H     3.962000000    -1.430000000    -3.937000000
O    -0.895000000    -4.876000000     1.203000000
H    -1.238000000    -5.054000000     2.079000000
H    -0.011000000    -4.541000000     1.356000000
O    -6.282000000     0.912000000     3.905000000
H    -5.408000000     0.646000000     4.190000000
H    -6.847000000     0.719000000     4.653000000
O     2.469000000    -1.317000000     3.229000000
H     2.501000000    -1.456000000     4.176000000
H     3.210000000    -1.818000000     2.889000000
O     6.840000000    -2.899000000    -2.594000000
H     6.630000000    -2.175000000    -3.184000000
H     6.014000000    -3.096000000    -2.152000000
O    -3.990000000    -0.598000000    -0.875000000
H    -3.301000000    -1.262000000    -0.902000000
H    -4.528000000    -0.841000000    -0.121000000
O    -2.364000000    -1.329000000     5.416000000
H    -2.960000000    -0.628000000     5.153000000
H    -1.528000000    -1.098000000     5.009000000
O    -0.610000000     3.801000000     5.593000000
H    -0.291000000     4.520000000     5.047000000
H    -1.485000000     3.613000000     5.254000000
O     0.568000000    -1.643000000    -7.079000000
H     0.811000000    -0.956000000    -6.459000000
H     1.402000000    -2.020000000    -7.359000000
O    -4.070000000     2.987000000     3.036000000
H    -4.922000000     2.586000000     2.866000000
H    -3.649000000     3.028000000     2.177000000
O    -6.259000000     1.168000000    -1.982000000
H    -7.127000000     1.088000000    -1.586000000
H    -5.664000000     0.799000000    -1.329000000
O    -0.878000000    -0.843000000     7.751000000
H    -0.036000000    -1.275000000     7.609000000
H    -1.267000000    -0.784000000     6.878000000
O    -1.803000000    -3.936000000     6.332000000
H    -1.449000000    -4.297000000     5.520000000
H    -1.929000000    -3.005000000     6.146000000
O    -1.626000000    -1.615000000    -5.582000000
H    -1.230000000    -1.729000000    -4.718000000
H    -0.883000000    -1.606000000    -6.186000000
O     4.853000000     2.698000000    -4.589000000
H     4.901000000     3.645000000    -4.457000000
H     4.405000000     2.595000000    -5.429000000
O    -0.186000000    -4.910000000     4.129000000
H     0.429000000    -4.227000000     4.398000000
H     0.327000000    -5.484000000     3.560000000
O     4.815000000     1.962000000     0.463000000
H     3.923000000     2.230000000     0.684000000
H     4.809000000     1.871000000    -0.490000000
O     1.581000000    -2.942000000    -4.746000000
H     1.597000000    -2.044000000    -5.076000000
H     1.945000000    -2.879000000    -3.863000000
O    -0.982000000    -4.570000000    -4.400000000
H    -0.121000000    -4.155000000    -4.438000000
H    -0.882000000    -5.271000000    -3.756000000
O    -2.367000000    -3.023000000    -2.703000000
H    -1.752000000    -3.672000000    -3.044000000
H    -3.103000000    -3.045000000    -3.315000000
O     1.271000000     3.813000000     1.867000000
H     1.978000000     4.435000000     2.038000000
H     1.698000000     2.957000000     1.869000000
O     2.849000000    -5.585000000    -5.499000000
H     2.381000000    -4.769000000    -5.325000000
H     2.468000000    -5.912000000    -6.314000000
O    -3.645000000     1.127000000     4.954000000
H    -3.865000000     1.538000000     5.790000000
H    -3.642000000     1.850000000     4.326000000
O    -0.968000000    -7.427000000     0.251000000
H    -0.051000000    -7.667000000     0.118000000
H    -0.935000000    -6.527000000     0.576000000
O     1.335000000     1.634000000     5.693000000
H     1.713000000     1.969000000     6.506000000
H     0.708000000     2.306000000     5.425000000
O    -5.239000000     5.346000000     3.871000000
H    -4.825000000     4.577000000     3.478000000
H    -6.141000000     5.321000000     3.553000000
O     7.095000000     0.009000000    -2.566000000
H     6.643000000    -0.386000000    -1.821000000
H     6.418000000     0.516000000    -3.015000000
O     5.198000000     0.190000000    -6.907000000
H     4.702000000     0.993000000    -6.746000000
H     5.897000000     0.205000000    -6.253000000
O     1.523000000    -4.787000000    -0.889000000
H     1.540000000    -3.911000000    -1.274000000
H     1.652000000    -4.640000000     0.048000000
O    -3.386000000     1.955000000    -1.783000000
H    -3.385000000     1.803000000    -2.728000000
H    -3.588000000     1.099000000    -1.404000000
O     1.645000000    -0.026000000    -5.280000000
H     1.349000000     0.847000000    -5.539000000
H     1.919000000     0.074000000    -4.368000000
O    -0.438000000    -5.956000000    -2.220000000
H    -0.506000000    -6.829000000    -1.832000000
H     0.119000000    -5.468000000    -1.613000000
O    -3.346000000     5.382000000     0.705000000
H    -2.710000000     5.237000000     0.005000000
H    -4.096000000     4.838000000     0.465000000
O    -5.590000000    -1.391000000     1.294000000
H    -5.632000000    -1.768000000     2.173000000
H    -6.505000000    -1.290000000     1.033000000
O     4.120000000     1.373000000    -2.254000000
H     3.511000000     0.688000000    -2.532000000
H     4.280000000     1.887000000    -3.046000000
O    -3.208000000    -4.414000000    -0.250000000
H    -2.962000000    -3.891000000    -1.013000000
H    -2.375000000    -4.635000000     0.167000000
O     0.272000000    -0.611000000     4.822000000
H     0.742000000    -0.844000000     4.021000000
H     0.652000000     0.227000000     5.087000000
O     6.268000000    -3.572000000     0.477000000
H     5.686000000    -3.646000000    -0.279000000
H     6.709000000    -4.420000000     0.524000000
O     1.585000000    -4.047000000     1.693000000
H     1.961000000    -4.556000000     2.411000000
H     1.763000000    -3.136000000     1.927000000
O    -5.273000000     3.335000000     0.066000000
H    -4.678000000     2.819000000    -0.479000000
H    -5.998000000     2.741000000     0.258000000
O    -1.938000000     4.730000000    -1.661000000
H    -1.064000000     4.617000000    -2.036000000
H    -2.424000000     3.958000000    -1.950000000
O     4.418000000    -3.917000000    -1.650000000
H     3.728000000    -3.364000000    -2.015000000
H     3.982000000    -4.745000000    -1.451000000
O    -6.800000000     1.276000000     1.198000000
H    -7.094000000     0.425000000     0.872000000
H    -6.659000000     1.137000000     2.135000000
O    -0.301000000     6.279000000     0.143000000
H    -0.730000000     6.071000000    -0.687000000
H     0.096000000     5.453000000     0.421000000
O    -0.842000000     5.105000000     3.039000000
H    -0.077000000     5.584000000     2.721000000
H    -1.229000000     4.722000000     2.251000000
