144
-2788.08059
O     3.089000000     0.816000000     3.990000000
H     3.258000000     0.604000000     3.072000000
H     3.664000000     0.229000000     4.481000000
O     4.453000000    -2.012000000    -1.581000000
H     3.740000000    -1.647000000    -2.104000000
H     4.028000000    -2.652000000    -1.010000000
O     2.430000000    -1.362000000    -3.296000000
H     1.671000000    -1.631000000    -2.779000000
H     2.147000000    -0.561000000    -3.737000000
O    -2.937000000     1.113000000     0.263000000
H    -2.143000000     0.864000000    -0.210000000
H    -2.628000000     1.367000000     1.133000000
O     0.462000000     1.160000000     4.784000000
H     1.231000000     0.683000000     4.471000000
H     0.743000000     2.074000000     4.815000000
O    -1.695000000     5.675000000    -0.318000000
H    -0.968000000     5.612000000    -0.937000000
H    -2.348000000     6.210000000    -0.770000000
O     2.824000000     3.351000000     5.297000000
H     2.972000000     2.454000000     4.997000000
H     2.622000000     3.840000000     4.500000000
O    -5.269000000     2.301000000     0.188000000
H    -4.399000000     1.963000000     0.399000000
H    -5.677000000     2.462000000     1.038000000
O     1.761000000    -5.292000000    -1.806000000
H     1.045000000    -4.747000000    -1.481000000
H     2.546000000    -4.923000000    -1.401000000
O     1.812000000     3.326000000    -3.930000000
H     0.946000000     3.731000000    -3.967000000
H     2.233000000     3.583000000    -4.750000000
O    -1.968000000    -0.879000000     3.904000000
H    -2.170000000    -0.080000000     4.390000000
H    -2.622000000    -0.906000000     3.205000000
O    -2.253000000     4.403000000     5.683000000
H    -1.661000000     5.020000000     6.113000000
H    -2.320000000     4.723000000     4.783000000
O    -3.144000000     2.556000000     2.992000000
H    -3.127000000     2.215000000     3.887000000
H    -2.677000000     3.389000000     3.044000000
O     4.569000000     1.878000000    -2.894000000
H     4.807000000     1.168000000    -3.489000000
H     5.065000000     2.633000000    -3.212000000
O    -4.029000000    -0.939000000    -3.462000000
H    -3.822000000    -0.524000000    -4.299000000
H    -3.787000000    -1.857000000    -3.584000000
O     2.675000000     7.334000000    -1.579000000
H     2.908000000     6.493000000    -1.187000000
H     1.752000000     7.241000000    -1.817000000
O    -2.720000000    -4.992000000    -1.369000000
H    -1.829000000    -4.828000000    -1.059000000
H    -2.740000000    -5.930000000    -1.557000000
O     3.810000000    -4.588000000    -0.165000000
H     3.726000000    -4.940000000     0.721000000
H     4.749000000    -4.441000000    -0.276000000
O     0.239000000    -8.029000000     1.363000000
H     0.327000000    -8.548000000     2.162000000
H    -0.242000000    -7.248000000     1.636000000
O    -5.291000000    -3.761000000    -0.727000000
H    -5.051000000    -2.848000000    -0.890000000
H    -4.476000000    -4.248000000    -0.848000000
O    -2.621000000     1.131000000    -4.741000000
H    -2.949000000     0.793000000    -3.907000000
H    -2.756000000     2.077000000    -4.686000000
O     2.857000000    -0.627000000     1.485000000
H     1.983000000    -0.824000000     1.148000000
H     3.194000000     0.047000000     0.895000000
O     0.550000000    -6.564000000    -5.811000000
H     1.450000000    -6.624000000    -5.490000000
H     0.246000000    -5.707000000    -5.512000000
O     2.953000000     1.786000000    -0.399000000
H     3.443000000     1.592000000    -1.198000000
H     2.044000000     1.583000000    -0.620000000
O    -1.026000000    -0.278000000    -6.437000000
H    -1.793000000     0.280000000    -6.307000000
H    -0.564000000    -0.250000000    -5.599000000
O     5.180000000     5.245000000    -0.093000000
H     4.401000000     4.911000000    -0.537000000
H     5.740000000     5.564000000    -0.801000000
O     0.602000000    -3.991000000    -5.160000000
H     0.994000000    -3.203000000    -5.536000000
H     0.765000000    -3.914000000    -4.220000000
O    -0.620000000    -1.543000000     5.864000000
H     0.311000000    -1.630000000     5.659000000
H    -1.030000000    -1.315000000     5.030000000
O     2.125000000    -2.132000000     5.067000000
H     2.174000000    -2.219000000     4.115000000
H     2.782000000    -2.744000000     5.398000000
O     2.715000000     4.437000000    -1.613000000
H     2.757000000     3.583000000    -1.184000000
H     2.636000000     4.233000000    -2.545000000
O     4.071000000    -3.879000000    -4.484000000
H     3.795000000    -3.159000000    -3.916000000
H     3.923000000    -3.553000000    -5.372000000
O    -0.678000000     4.818000000    -3.403000000
H    -0.338000000     5.436000000    -2.756000000
H    -0.590000000     5.275000000    -4.239000000
O     4.348000000    -2.503000000     2.978000000
H     5.261000000    -2.573000000     2.700000000
H     3.975000000    -1.832000000     2.407000000
O     1.268000000     6.088000000     2.692000000
H     1.316000000     6.626000000     1.902000000
H     2.123000000     6.199000000     3.109000000
O     1.426000000     0.635000000    -4.782000000
H     1.911000000     0.636000000    -5.607000000
H     1.597000000     1.497000000    -4.403000000
O     0.258000000    -4.641000000     1.981000000
H     0.140000000    -4.201000000     1.139000000
H    -0.521000000    -5.189000000     2.076000000
O     2.863000000    -5.659000000     3.156000000
H     3.468000000    -4.923000000     3.070000000
H     2.050000000    -5.350000000     2.756000000
O    -2.157000000    -3.937000000    -6.123000000
H    -1.213000000    -4.057000000    -6.020000000
H    -2.402000000    -3.342000000    -5.415000000
O    -3.741000000    -0.857000000     2.084000000
H    -3.423000000    -0.587000000     1.222000000
H    -4.635000000    -1.160000000     1.926000000
O    -2.490000000    -3.147000000    -3.620000000
H    -1.600000000    -2.809000000    -3.519000000
H    -2.628000000    -3.692000000    -2.845000000
O    -2.866000000     4.004000000    -5.294000000
H    -3.307000000     4.849000000    -5.373000000
H    -2.087000000     4.189000000    -4.769000000
O    -4.421000000    -0.625000000    -0.924000000
H    -4.423000000    -0.548000000    -1.878000000
H    -4.027000000     0.192000000    -0.619000000
O     5.339000000     2.697000000     0.979000000
H     4.498000000     2.447000000     0.597000000
H     5.485000000     3.592000000     0.672000000
O    -4.397000000     6.771000000     1.488000000
H    -5.330000000     6.754000000     1.273000000
H    -3.967000000     6.397000000     0.719000000
O    -1.778000000    -6.278000000     2.294000000
H    -2.535000000    -6.831000000     2.101000000
H    -2.108000000    -5.629000000     2.916000000
O    -2.204000000     5.101000000     2.865000000
H    -1.319000000     5.213000000     2.516000000
H    -2.760000000     5.609000000     2.274000000
O     1.256000000    -8.180000000    -1.791000000
H     0.447000000    -8.164000000    -1.281000000
H     1.303000000    -7.313000000    -2.194000000
O    -2.208000000     1.727000000     5.415000000
H    -1.303000000     1.435000000     5.522000000
H    -2.165000000     2.679000000     5.507000000
