144
-2817.18781
O     1.702000000     6.334000000     3.148000000
H     2.190000000     7.153000000     3.061000000
H     2.104000000     5.746000000     2.509000000
O     1.521000000    -5.478000000     0.149000000
H     2.172000000    -5.956000000    -0.365000000
H     2.001000000    -5.171000000     0.918000000
O     4.773000000    -2.423000000    -0.040000000
H     4.698000000    -1.591000000    -0.509000000
H     4.341000000    -3.059000000    -0.611000000
O    -4.610000000    -2.795000000    -3.166000000
H    -4.700000000    -3.543000000    -2.575000000
H    -3.945000000    -2.243000000    -2.753000000
O    -1.877000000     0.795000000    -4.440000000
H    -2.224000000     0.352000000    -3.665000000
H    -1.365000000     0.123000000    -4.890000000
O     1.919000000     4.337000000     5.317000000
H     1.840000000     4.848000000     4.512000000
H     1.022000000     4.267000000     5.646000000
O     0.591000000    -7.839000000    -3.234000000
H     0.085000000    -7.132000000    -2.832000000
H     0.870000000    -7.484000000    -4.078000000
O    -3.561000000     2.109000000     0.092000000
H    -3.309000000     2.077000000     1.015000000
H    -3.625000000     1.190000000    -0.170000000
O     0.725000000    -0.545000000     4.491000000
H     0.606000000    -1.439000000     4.171000000
H     1.507000000    -0.230000000     4.038000000
O    -4.032000000    -6.186000000    -3.889000000
H    -3.737000000    -6.701000000    -3.138000000
H    -3.310000000    -5.581000000    -4.062000000
O     4.729000000     0.211000000    -1.547000000
H     3.956000000     0.738000000    -1.750000000
H     5.362000000     0.839000000    -1.198000000
O     2.957000000     5.118000000     0.866000000
H     2.678000000     5.071000000    -0.049000000
H     3.649000000     4.461000000     0.939000000
O    -3.256000000     5.336000000    -1.741000000
H    -2.669000000     5.404000000    -0.988000000
H    -2.791000000     4.770000000    -2.357000000
O    -4.134000000    -0.507000000    -0.870000000
H    -3.428000000    -0.592000000    -1.510000000
H    -4.928000000    -0.721000000    -1.360000000
O    -4.506000000    -0.723000000     1.782000000
H    -4.637000000    -0.665000000     0.836000000
H    -3.624000000    -1.081000000     1.880000000
O    -1.992000000     3.312000000    -3.070000000
H    -1.905000000     3.028000000    -3.980000000
H    -1.092000000     3.447000000    -2.774000000
O     3.924000000    -1.533000000     5.672000000
H     4.137000000    -1.714000000     4.756000000
H     4.010000000    -0.583000000     5.754000000
O     3.921000000    -4.531000000    -1.961000000
H     3.707000000    -5.457000000    -1.848000000
H     4.660000000    -4.528000000    -2.569000000
O     0.501000000     2.278000000    -3.616000000
H    -0.188000000     1.631000000    -3.765000000
H     0.559000000     2.761000000    -4.441000000
O     2.634000000    -4.580000000     2.479000000
H     3.110000000    -4.969000000     3.213000000
H     3.088000000    -3.755000000     2.309000000
O    -5.838000000     1.971000000    -5.141000000
H    -5.085000000     1.384000000    -5.200000000
H    -5.610000000     2.585000000    -4.444000000
O    -0.001000000    -3.308000000     3.996000000
H     0.578000000    -3.832000000     3.441000000
H    -0.462000000    -3.951000000     4.535000000
O    -5.596000000    -3.631000000     0.872000000
H    -4.659000000    -3.735000000     0.708000000
H    -5.948000000    -4.520000000     0.823000000
O    -2.879000000    -4.706000000    -1.595000000
H    -2.724000000    -5.597000000    -1.910000000
H    -2.007000000    -4.314000000    -1.548000000
O    -1.230000000     5.639000000     3.775000000
H    -0.832000000     5.545000000     2.910000000
H    -0.535000000     6.010000000     4.319000000
O    -0.626000000    -3.935000000    -6.567000000
H    -1.275000000    -3.790000000    -5.879000000
H    -1.067000000    -3.663000000    -7.372000000
O    -6.353000000    -0.517000000    -2.438000000
H    -6.320000000     0.236000000    -3.028000000
H    -6.598000000    -1.252000000    -3.001000000
O    -0.046000000     4.651000000    -1.342000000
H     0.706000000     4.246000000    -1.774000000
H     0.247000000     5.539000000    -1.136000000
O    -0.667000000     3.847000000     6.162000000
H    -0.776000000     2.897000000     6.207000000
H    -1.543000000     4.180000000     5.967000000
O    -2.790000000     3.660000000     2.964000000
H    -2.262000000     4.309000000     3.428000000
H    -3.350000000     3.279000000     3.640000000
O    -0.214000000    -1.171000000    -5.483000000
H    -0.373000000    -2.111000000    -5.389000000
H     0.732000000    -1.076000000    -5.371000000
O     2.381000000     3.910000000    -2.207000000
H     2.125000000     2.988000000    -2.204000000
H     3.327000000     3.895000000    -2.351000000
O     0.664000000    -1.352000000     7.196000000
H     0.886000000    -0.633000000     7.787000000
H     0.864000000    -1.015000000     6.322000000
O     1.674000000    -3.200000000    -3.480000000
H     0.804000000    -3.095000000    -3.095000000
H     2.155000000    -3.729000000    -2.844000000
O     4.550000000     3.554000000     5.389000000
H     4.784000000     3.988000000     4.569000000
H     3.680000000     3.892000000     5.600000000
O     4.028000000    -1.560000000     2.821000000
H     4.154000000    -1.366000000     1.892000000
H     4.759000000    -1.125000000     3.258000000
O    -1.930000000    -0.740000000     3.055000000
H    -1.032000000    -1.003000000     2.851000000
H    -1.834000000    -0.067000000     3.729000000
O     3.083000000     1.279000000     6.001000000
H     3.856000000     1.841000000     5.955000000
H     2.583000000     1.620000000     6.743000000
O    -0.886000000     1.235000000     6.617000000
H    -0.127000000     1.506000000     7.133000000
H    -0.519000000     0.698000000     5.915000000
O     2.121000000     1.211000000    -1.796000000
H     1.348000000     1.444000000    -2.311000000
H     1.861000000     0.424000000    -1.317000000
O     4.159000000    -2.936000000    -4.815000000
H     3.410000000    -2.966000000    -4.220000000
H     3.933000000    -2.257000000    -5.451000000
O    -0.111000000    -5.505000000    -2.036000000
H    -0.209000000    -4.560000000    -2.157000000
H     0.080000000    -5.609000000    -1.104000000
O    -2.258000000    -3.750000000    -4.357000000
H    -3.156000000    -3.724000000    -4.028000000
H    -1.730000000    -3.402000000    -3.638000000
O    -1.927000000     5.157000000     0.704000000
H    -1.211000000     4.744000000     0.221000000
H    -2.266000000     4.462000000     1.269000000
O    -4.611000000     2.742000000    -2.524000000
H    -3.679000000     2.907000000    -2.669000000
H    -4.743000000     2.918000000    -1.592000000
O    -4.348000000    -0.267000000    -5.325000000
H    -4.576000000    -1.146000000    -5.024000000
H    -3.394000000    -0.279000000    -5.402000000
O     1.485000000    -5.716000000    -5.099000000
H     0.652000000    -5.366000000    -5.417000000
H     1.994000000    -4.941000000    -4.861000000
O     6.205000000    -0.120000000     3.582000000
H     6.512000000     0.391000000     2.833000000
H     6.194000000     0.502000000     4.309000000
