144
-2827.24490
O     2.711000000    -1.861000000     4.527000000
H     3.006000000    -1.936000000     3.619000000
H     2.255000000    -2.685000000     4.699000000
O     4.143000000     3.293000000    -6.412000000
H     4.857000000     3.259000000    -5.775000000
H     3.486000000     2.687000000    -6.068000000
O     1.201000000    -3.919000000     5.619000000
H     0.272000000    -3.728000000     5.494000000
H     1.291000000    -4.840000000     5.373000000
O     6.061000000     1.014000000    -3.795000000
H     6.470000000     0.414000000    -4.419000000
H     5.706000000     0.444000000    -3.113000000
O     5.539000000    -2.661000000     0.386000000
H     5.628000000    -2.669000000    -0.567000000
H     5.973000000    -1.854000000     0.660000000
O    -0.816000000     1.724000000    -4.842000000
H    -0.109000000     1.218000000    -4.441000000
H    -1.029000000     2.395000000    -4.193000000
O    -2.269000000     3.181000000    -2.775000000
H    -2.553000000     4.062000000    -3.021000000
H    -1.650000000     3.321000000    -2.058000000
O     6.144000000    -3.288000000    -2.692000000
H     6.906000000    -3.469000000    -3.244000000
H     5.832000000    -2.433000000    -2.988000000
O    -3.441000000    -4.101000000     3.427000000
H    -2.897000000    -4.872000000     3.268000000
H    -4.263000000    -4.454000000     3.768000000
O     4.026000000    -5.219000000    -2.383000000
H     3.173000000    -4.814000000    -2.537000000
H     4.630000000    -4.481000000    -2.301000000
O     0.150000000     4.635000000    -5.158000000
H     0.919000000     4.166000000    -5.481000000
H    -0.450000000     4.653000000    -5.903000000
O     4.317000000     3.542000000     2.133000000
H     5.121000000     3.029000000     2.053000000
H     3.622000000     2.942000000     1.862000000
O    -4.709000000     1.755000000     4.359000000
H    -5.607000000     2.085000000     4.370000000
H    -4.179000000     2.492000000     4.664000000
O    -1.130000000     0.872000000     6.076000000
H    -0.306000000     0.404000000     6.208000000
H    -0.890000000     1.638000000     5.553000000
O     5.317000000    -1.977000000     5.631000000
H     4.531000000    -2.054000000     5.090000000
H     5.329000000    -2.779000000     6.152000000
O    -5.936000000    -2.080000000     3.668000000
H    -5.437000000    -1.422000000     3.184000000
H    -5.899000000    -2.861000000     3.116000000
O    -0.473000000     4.058000000     2.230000000
H    -1.204000000     4.673000000     2.287000000
H     0.296000000     4.579000000     2.459000000
O    -4.948000000    -2.434000000     6.330000000
H    -5.296000000    -2.796000000     5.515000000
H    -4.193000000    -1.913000000     6.057000000
O    -5.067000000    -0.154000000     2.382000000
H    -5.477000000     0.142000000     1.569000000
H    -4.770000000     0.651000000     2.807000000
O     0.322000000     4.219000000     5.681000000
H     0.419000000     3.439000000     5.134000000
H     1.190000000     4.621000000     5.681000000
O     3.450000000    -2.699000000     2.023000000
H     4.209000000    -2.673000000     1.440000000
H     2.799000000    -3.213000000     1.545000000
O    -0.808000000     3.917000000    -0.572000000
H    -0.036000000     3.491000000    -0.945000000
H    -0.621000000     3.974000000     0.365000000
O     0.770000000    -1.545000000    -6.026000000
H     0.308000000    -1.023000000    -6.682000000
H     0.567000000    -1.117000000    -5.194000000
O    -1.571000000    -2.954000000     5.512000000
H    -1.971000000    -2.181000000     5.115000000
H    -2.088000000    -3.689000000     5.182000000
O     1.749000000    -3.419000000    -2.502000000
H     1.838000000    -3.550000000    -1.558000000
H     1.924000000    -2.487000000    -2.632000000
O     2.741000000    -2.857000000    -7.508000000
H     2.068000000    -2.375000000    -7.028000000
H     2.275000000    -3.598000000    -7.894000000
O     1.464000000     3.466000000    -2.201000000
H     2.350000000     3.155000000    -2.387000000
H     1.481000000     4.393000000    -2.437000000
O     0.722000000     1.938000000     4.265000000
H     1.677000000     1.984000000     4.318000000
H     0.551000000     1.253000000     3.619000000
O    -3.972000000    -2.513000000     1.156000000
H    -3.528000000    -3.109000000     1.759000000
H    -3.823000000    -1.643000000     1.525000000
O    -4.267000000    -1.044000000    -3.673000000
H    -3.473000000    -1.504000000    -3.397000000
H    -4.439000000    -1.373000000    -4.555000000
O    -3.055000000     2.608000000    -6.190000000
H    -2.438000000     2.041000000    -5.729000000
H    -3.915000000     2.233000000    -5.998000000
O    -4.137000000     3.377000000     0.216000000
H    -3.701000000     3.248000000    -0.626000000
H    -3.563000000     2.949000000     0.851000000
O     1.575000000    -4.338000000     0.881000000
H     0.952000000    -4.992000000     0.565000000
H     1.757000000    -4.597000000     1.784000000
O     5.257000000     1.420000000    -0.153000000
H     4.898000000     2.299000000    -0.275000000
H     5.848000000     1.505000000     0.596000000
O     0.869000000    -4.600000000    -4.760000000
H     1.449000000    -4.223000000    -4.099000000
H     0.446000000    -3.844000000    -5.166000000
O    -5.928000000     0.520000000    -0.008000000
H    -5.677000000     1.434000000    -0.138000000
H    -5.805000000     0.113000000    -0.866000000
O    -2.911000000     5.535000000     2.201000000
H    -2.723000000     6.357000000     1.749000000
H    -3.830000000     5.356000000     2.002000000
O     2.738000000     1.775000000    -4.682000000
H     2.046000000     1.170000000    -4.414000000
H     3.544000000     1.265000000    -4.607000000
O    -2.835000000    -3.830000000    -0.952000000
H    -2.121000000    -4.195000000    -0.430000000
H    -3.210000000    -3.144000000    -0.399000000
O     1.727000000     2.637000000     1.094000000
H     0.907000000     2.676000000     1.585000000
H     1.579000000     1.960000000     0.433000000
O    -4.634000000     1.637000000    -2.246000000
H    -4.022000000     2.145000000    -2.779000000
H    -4.552000000     0.742000000    -2.575000000
O     1.599000000     0.702000000     7.492000000
H     1.692000000     1.632000000     7.284000000
H     1.970000000     0.249000000     6.735000000
O    -3.446000000     4.084000000     4.586000000
H    -3.080000000     4.507000000     5.363000000
H    -2.932000000     4.433000000     3.858000000
O    -3.205000000    -0.480000000     5.017000000
H    -2.569000000     0.082000000     5.459000000
H    -3.839000000     0.128000000     4.636000000
O     3.257000000     0.887000000     5.206000000
H     4.136000000     1.257000000     5.281000000
H     3.399000000    -0.057000000     5.137000000
O     5.093000000    -0.647000000    -1.988000000
H     4.182000000    -0.796000000    -2.244000000
H     5.037000000    -0.055000000    -1.238000000
O    -0.494000000     0.101000000    -7.859000000
H    -1.362000000     0.208000000    -7.470000000
H    -0.133000000     0.987000000    -7.887000000
O     3.981000000    -0.964000000    -5.937000000
H     3.291000000    -0.828000000    -5.287000000
H     3.583000000    -1.539000000    -6.591000000
