144
-2807.46752
O    -3.003000000    -3.913000000     1.830000000
H    -3.836000000    -4.382000000     1.893000000
H    -2.574000000    -4.074000000     2.670000000
O     6.956000000     0.802000000    -2.104000000
H     7.636000000     0.593000000    -1.465000000
H     7.236000000     1.632000000    -2.490000000
O     2.773000000    -5.567000000    -3.341000000
H     2.828000000    -5.846000000    -4.255000000
H     3.625000000    -5.170000000    -3.160000000
O    -2.820000000     2.004000000     5.254000000
H    -2.408000000     2.323000000     6.057000000
H    -2.698000000     1.055000000     5.282000000
O     2.568000000    -3.721000000     2.506000000
H     2.040000000    -3.470000000     1.748000000
H     3.190000000    -4.363000000     2.161000000
O     4.518000000     1.601000000    -0.929000000
H     5.313000000     1.537000000    -1.458000000
H     3.822000000     1.281000000    -1.503000000
O     6.175000000     1.975000000    -6.424000000
H     6.419000000     2.822000000    -6.050000000
H     5.814000000     1.483000000    -5.686000000
O    -3.181000000    -6.302000000    -0.222000000
H    -3.759000000    -5.787000000     0.342000000
H    -2.300000000    -6.109000000     0.099000000
O     1.719000000    -6.357000000    -1.069000000
H     1.846000000    -5.697000000    -0.387000000
H     2.068000000    -5.951000000    -1.863000000
O     2.516000000     1.154000000     2.376000000
H     1.965000000     0.551000000     1.876000000
H     2.097000000     1.203000000     3.235000000
O     2.322000000    -3.498000000    -5.779000000
H     1.930000000    -2.743000000    -5.340000000
H     1.586000000    -4.083000000    -5.953000000
O    -1.242000000     3.821000000     3.909000000
H    -0.724000000     3.197000000     4.418000000
H    -2.080000000     3.381000000     3.773000000
O    -6.356000000    -2.371000000     3.229000000
H    -6.659000000    -2.664000000     2.369000000
H    -5.576000000    -1.849000000     3.044000000
O     0.613000000     2.587000000    -3.892000000
H     1.047000000     3.410000000    -3.666000000
H     0.396000000     2.191000000    -3.048000000
O     4.888000000     2.709000000     1.807000000
H     4.799000000     2.906000000     0.875000000
H     4.090000000     2.229000000     2.028000000
O    -4.394000000    -2.185000000     0.218000000
H    -5.255000000    -2.598000000     0.274000000
H    -3.856000000    -2.663000000     0.849000000
O     2.603000000    -3.693000000    -0.238000000
H     2.691000000    -3.751000000    -1.190000000
H     3.166000000    -2.960000000     0.010000000
O    -0.821000000    -5.742000000     1.154000000
H    -1.346000000    -4.954000000     1.298000000
H    -0.202000000    -5.754000000     1.883000000
O     4.467000000    -1.716000000     0.619000000
H     4.150000000    -0.839000000     0.839000000
H     5.405000000    -1.599000000     0.464000000
O     2.702000000    -0.708000000    -5.445000000
H     2.497000000     0.197000000    -5.680000000
H     2.542000000    -0.752000000    -4.502000000
O     0.663000000    -0.959000000     5.136000000
H     1.348000000    -1.108000000     4.484000000
H     1.114000000    -1.031000000     5.977000000
O    -5.327000000     3.498000000     1.750000000
H    -4.954000000     3.127000000     0.950000000
H    -4.908000000     4.354000000     1.834000000
O     5.189000000    -1.102000000    -6.107000000
H     4.701000000    -1.208000000    -5.291000000
H     4.671000000    -0.479000000    -6.617000000
O     4.363000000     2.050000000    -4.191000000
H     3.946000000     1.549000000    -3.489000000
H     3.647000000     2.264000000    -4.789000000
O    -2.140000000    -0.806000000     5.440000000
H    -1.354000000    -1.352000000     5.443000000
H    -2.707000000    -1.200000000     6.104000000
O     2.218000000     2.117000000    -5.977000000
H     2.309000000     2.795000000    -6.648000000
H     1.639000000     2.506000000    -5.322000000
O     1.432000000     5.164000000    -3.191000000
H     1.820000000     5.992000000    -3.474000000
H     1.239000000     5.294000000    -2.263000000
O     1.276000000     4.341000000     1.946000000
H     0.878000000     5.106000000     2.361000000
H     1.269000000     3.668000000     2.626000000
O    -4.974000000    -3.024000000    -2.499000000
H    -4.398000000    -2.878000000    -1.749000000
H    -5.820000000    -3.248000000    -2.111000000
O    -5.493000000     0.306000000     1.173000000
H    -4.782000000    -0.325000000     1.061000000
H    -5.157000000     0.935000000     1.812000000
O     0.302000000    -2.637000000    -4.108000000
H     0.888000000    -2.096000000    -3.579000000
H    -0.210000000    -2.008000000    -4.617000000
O    -1.188000000    -0.700000000    -5.039000000
H    -1.555000000     0.148000000    -4.788000000
H    -1.871000000    -1.108000000    -5.571000000
O    -4.482000000     0.015000000    -1.545000000
H    -4.153000000    -0.546000000    -0.843000000
H    -5.424000000    -0.153000000    -1.565000000
O     7.539000000    -0.275000000    -4.762000000
H     6.888000000     0.121000000    -4.182000000
H     7.023000000    -0.767000000    -5.401000000
O    -0.714000000    -4.788000000    -2.389000000
H    -0.522000000    -4.044000000    -2.959000000
H     0.139000000    -5.053000000    -2.045000000
O    -1.164000000    -4.506000000     4.182000000
H    -0.427000000    -5.098000000     4.034000000
H    -1.216000000    -4.420000000     5.134000000
O     0.759000000     1.600000000     4.359000000
H     1.385000000     1.505000000     5.078000000
H     0.193000000     0.832000000     4.432000000
O    -0.470000000     6.099000000     3.300000000
H    -0.937000000     5.284000000     3.485000000
H    -0.551000000     6.610000000     4.105000000
O     0.295000000    -0.485000000    -7.516000000
H     1.142000000    -0.042000000    -7.450000000
H    -0.058000000    -0.459000000    -6.627000000
O     4.976000000    -0.920000000    -3.224000000
H     4.164000000    -0.547000000    -2.881000000
H     5.669000000    -0.473000000    -2.737000000
O    -2.961000000    -5.386000000    -3.787000000
H    -3.623000000    -5.217000000    -3.117000000
H    -2.128000000    -5.338000000    -3.317000000
O    -1.894000000     2.867000000    -1.895000000
H    -1.861000000     3.762000000    -1.559000000
H    -1.442000000     2.346000000    -1.230000000
O    -3.567000000     5.579000000     1.189000000
H    -3.213000000     6.435000000     1.433000000
H    -2.959000000     5.249000000     0.527000000
O     4.619000000    -3.727000000    -2.767000000
H     5.480000000    -3.359000000    -2.963000000
H     4.001000000    -3.049000000    -3.041000000
O    -4.752000000     2.767000000    -0.770000000
H    -4.754000000     1.834000000    -0.985000000
H    -4.611000000     3.205000000    -1.609000000
O    -5.228000000     2.982000000     4.634000000
H    -4.364000000     2.602000000     4.792000000
H    -5.349000000     2.919000000     3.687000000
O     2.403000000     5.509000000    -0.243000000
H     1.973000000     5.117000000     0.518000000
H     3.321000000     5.590000000     0.016000000
O    -1.876000000     5.260000000    -0.806000000
H    -2.609000000     5.829000000    -1.042000000
H    -1.138000000     5.858000000    -0.688000000
