144
-2806.70999
O    -6.063000000    -3.769000000     1.077000000
H    -5.568000000    -4.588000000     1.117000000
H    -6.770000000    -3.946000000     0.456000000
O     7.529000000     2.595000000    -1.791000000
H     7.891000000     3.140000000    -1.092000000
H     7.824000000     3.016000000    -2.599000000
O     7.368000000     4.388000000     0.600000000
H     6.905000000     3.551000000     0.633000000
H     6.673000000     5.043000000     0.534000000
O    -2.610000000    -3.390000000     3.893000000
H    -1.905000000    -3.054000000     4.445000000
H    -3.413000000    -3.130000000     4.344000000
O     0.691000000    -4.304000000     0.239000000
H     1.449000000    -3.985000000    -0.250000000
H     0.677000000    -3.771000000     1.034000000
O     3.509000000     3.627000000    -2.133000000
H     4.251000000     4.078000000    -1.731000000
H     3.565000000     2.731000000    -1.803000000
O     3.541000000    -3.437000000    -1.085000000
H     3.621000000    -3.937000000    -1.897000000
H     3.335000000    -2.547000000    -1.370000000
O     4.536000000     2.135000000     3.625000000
H     4.407000000     1.967000000     2.691000000
H     4.790000000     1.286000000     3.988000000
O    -5.018000000    -0.444000000    -0.915000000
H    -5.024000000     0.487000000    -1.135000000
H    -4.983000000    -0.464000000     0.041000000
O    -4.893000000     0.393000000     4.097000000
H    -4.894000000     0.097000000     3.187000000
H    -5.494000000    -0.203000000     4.544000000
O    -1.644000000     0.754000000    -2.773000000
H    -1.006000000     0.570000000    -2.083000000
H    -1.925000000    -0.109000000    -3.077000000
O     4.001000000     1.874000000     0.886000000
H     4.946000000     1.743000000     0.968000000
H     3.735000000     1.268000000     0.194000000
O     5.554000000    -1.005000000    -0.425000000
H     4.912000000    -0.548000000    -0.969000000
H     5.043000000    -1.356000000     0.305000000
O    -2.922000000    -4.809000000    -0.879000000
H    -2.215000000    -5.121000000    -1.444000000
H    -3.197000000    -3.982000000    -1.273000000
O     3.863000000    -1.648000000     1.911000000
H     4.375000000    -1.296000000     2.639000000
H     2.995000000    -1.804000000     2.283000000
O     2.561000000    -6.382000000    -1.618000000
H     2.178000000    -6.432000000    -0.742000000
H     3.393000000    -6.848000000    -1.543000000
O    -1.729000000     3.890000000     4.055000000
H    -2.349000000     4.129000000     4.743000000
H    -0.872000000     3.928000000     4.481000000
O     2.398000000    -4.692000000     3.420000000
H     1.695000000    -4.080000000     3.201000000
H     2.559000000    -5.172000000     2.608000000
O    -7.361000000     1.979000000     3.758000000
H    -7.792000000     1.339000000     3.192000000
H    -6.538000000     1.559000000     4.010000000
O     1.445000000    -3.083000000    -6.522000000
H     1.868000000    -2.502000000    -7.155000000
H     1.763000000    -2.783000000    -5.671000000
O     4.605000000    -4.327000000     1.225000000
H     4.647000000    -3.555000000     1.789000000
H     4.358000000    -3.984000000     0.366000000
O    -0.367000000    -6.444000000     1.153000000
H     0.080000000    -5.766000000     0.645000000
H    -1.268000000    -6.129000000     1.232000000
O     4.953000000    -1.973000000    -5.973000000
H     4.814000000    -1.093000000    -6.325000000
H     5.886000000    -2.001000000    -5.762000000
O     1.709000000     3.339000000    -3.973000000
H     1.718000000     2.449000000    -4.324000000
H     2.448000000     3.364000000    -3.364000000
O    -0.133000000    -2.916000000     5.271000000
H    -0.412000000    -3.754000000     5.639000000
H    -0.008000000    -2.349000000     6.032000000
O     1.728000000     0.673000000    -5.095000000
H     1.694000000    -0.167000000    -4.638000000
H     0.909000000     0.711000000    -5.589000000
O     1.917000000     3.342000000     1.791000000
H     2.138000000     2.688000000     1.128000000
H     2.469000000     3.119000000     2.540000000
O    -5.780000000    -0.456000000     1.790000000
H    -6.681000000    -0.377000000     2.102000000
H    -5.693000000    -1.376000000     1.540000000
O    -0.974000000     2.967000000    -4.343000000
H    -1.178000000     2.172000000    -3.851000000
H    -0.067000000     3.166000000    -4.112000000
O    -3.202000000     1.071000000     6.616000000
H    -2.997000000     0.505000000     5.871000000
H    -2.373000000     1.501000000     6.825000000
O     2.639000000    -2.110000000    -4.355000000
H     2.972000000    -1.821000000    -3.505000000
H     3.424000000    -2.267000000    -4.879000000
O    -1.401000000    -2.023000000    -3.905000000
H    -2.122000000    -2.325000000    -3.354000000
H    -0.717000000    -2.682000000    -3.788000000
O     2.102000000     6.143000000    -4.151000000
H     1.897000000     5.209000000    -4.183000000
H     2.092000000     6.422000000    -5.067000000
O     4.321000000     0.898000000    -6.078000000
H     3.611000000     0.674000000    -5.476000000
H     5.044000000     1.159000000    -5.508000000
O    -2.915000000    -5.423000000     1.865000000
H    -2.827000000    -4.894000000     2.658000000
H    -3.059000000    -4.785000000     1.166000000
O     0.298000000    -2.342000000     2.421000000
H     0.160000000    -2.542000000     3.347000000
H     0.056000000    -1.420000000     2.336000000
O    -0.598000000     4.986000000     1.744000000
H     0.060000000     4.352000000     1.460000000
H    -0.993000000     4.589000000     2.521000000
O     5.865000000     1.054000000    -3.788000000
H     5.299000000     0.936000000    -3.024000000
H     6.605000000     1.565000000    -3.460000000
O    -0.030000000    -5.389000000    -2.156000000
H     0.802000000    -5.862000000    -2.138000000
H    -0.071000000    -4.944000000    -1.310000000
O    -3.766000000    -2.601000000    -2.132000000
H    -4.215000000    -2.943000000    -2.905000000
H    -4.432000000    -2.086000000    -1.676000000
O    -3.998000000     2.560000000    -3.320000000
H    -3.320000000     1.886000000    -3.375000000
H    -3.513000000     3.381000000    -3.233000000
O     6.737000000     1.460000000     1.008000000
H     7.017000000     1.464000000     0.093000000
H     7.423000000     0.975000000     1.466000000
O    -2.048000000     6.267000000    -0.404000000
H    -1.327000000     5.929000000     0.126000000
H    -1.935000000     7.218000000    -0.383000000
O    -4.073000000     3.156000000     3.019000000
H    -3.149000000     3.344000000     3.183000000
H    -4.261000000     2.389000000     3.560000000
O     7.076000000    -2.094000000    -2.672000000
H     6.638000000    -1.245000000    -2.627000000
H     7.485000000    -2.199000000    -1.813000000
O    -5.860000000     2.105000000    -1.342000000
H    -5.626000000     2.850000000    -0.789000000
H    -5.273000000     2.172000000    -2.095000000
O     1.851000000     5.833000000     0.025000000
H     1.212000000     5.234000000    -0.361000000
H     2.242000000     5.336000000     0.743000000
O    -4.599000000     3.956000000     0.581000000
H    -4.619000000     3.524000000     1.435000000
H    -3.741000000     4.379000000     0.547000000
