144
-2829.24829
O    -2.674000000     4.701000000     1.932000000
H    -1.933000000     4.097000000     1.970000000
H    -2.669000000     5.030000000     1.033000000
O     0.669000000     7.902000000    -1.801000000
H     0.501000000     6.967000000    -1.688000000
H     1.256000000     8.129000000    -1.080000000
O     0.184000000     1.640000000     5.200000000
H     0.135000000     1.950000000     6.104000000
H     0.932000000     1.042000000     5.192000000
O    -0.785000000     2.406000000     2.471000000
H    -0.270000000     2.002000000     3.169000000
H    -0.488000000     1.970000000     1.672000000
O    -2.248000000     3.511000000     4.668000000
H    -1.798000000     3.412000000     3.830000000
H    -2.992000000     2.911000000     4.613000000
O     0.629000000    -4.892000000     3.843000000
H     0.988000000    -5.321000000     4.620000000
H     0.312000000    -5.611000000     3.297000000
O    -2.065000000    -3.989000000     5.500000000
H    -1.172000000    -4.240000000     5.263000000
H    -2.078000000    -4.025000000     6.456000000
O    -2.989000000     2.700000000    -2.386000000
H    -3.859000000     2.408000000    -2.656000000
H    -2.418000000     2.459000000    -3.116000000
O     1.306000000     6.231000000    -5.118000000
H     1.729000000     6.908000000    -4.589000000
H     1.089000000     6.671000000    -5.940000000
O     1.902000000    -2.546000000     3.322000000
H     2.424000000    -3.018000000     2.674000000
H     1.281000000    -3.197000000     3.648000000
O     3.793000000     4.844000000    -3.185000000
H     3.227000000     5.161000000    -3.889000000
H     3.214000000     4.772000000    -2.427000000
O    -3.739000000    -6.202000000     1.862000000
H    -3.243000000    -5.504000000     1.434000000
H    -4.201000000    -6.640000000     1.148000000
O     0.336000000     5.229000000    -1.507000000
H     0.412000000     5.014000000    -0.577000000
H     0.754000000     4.495000000    -1.957000000
O    -0.273000000    -6.688000000     1.983000000
H     0.137000000    -7.381000000     1.465000000
H    -0.891000000    -6.272000000     1.381000000
O     3.969000000     3.712000000    -0.520000000
H     4.877000000     3.848000000    -0.791000000
H     3.676000000     2.958000000    -1.032000000
O     0.028000000     1.780000000    -6.751000000
H     0.342000000     2.433000000    -6.125000000
H     0.790000000     1.585000000    -7.296000000
O     7.755000000     0.768000000    -1.390000000
H     8.307000000     0.144000000    -0.919000000
H     6.860000000     0.474000000    -1.218000000
O     3.107000000    -3.195000000    -1.613000000
H     3.512000000    -2.530000000    -2.170000000
H     2.873000000    -3.902000000    -2.214000000
O     6.962000000     3.331000000    -1.148000000
H     7.763000000     3.826000000    -0.974000000
H     7.261000000     2.431000000    -1.280000000
O     2.200000000     0.568000000     2.248000000
H     1.752000000    -0.220000000     1.940000000
H     2.282000000     0.442000000     3.194000000
O     0.497000000    -0.738000000    -3.494000000
H     0.835000000    -1.297000000    -4.194000000
H     1.237000000    -0.628000000    -2.897000000
O     2.023000000    -0.313000000     4.987000000
H     2.238000000    -1.123000000     4.524000000
H     2.320000000    -0.465000000     5.885000000
O     2.561000000    -5.761000000     0.450000000
H     1.770000000    -6.299000000     0.410000000
H     3.194000000    -6.225000000    -0.098000000
O     4.808000000     2.219000000    -3.340000000
H     4.655000000     3.147000000    -3.515000000
H     3.948000000     1.876000000    -3.097000000
O    -6.339000000    -2.492000000    -1.509000000
H    -5.715000000    -1.832000000    -1.207000000
H    -6.647000000    -2.162000000    -2.353000000
O    -2.092000000     0.259000000     6.038000000
H    -1.745000000    -0.203000000     6.801000000
H    -1.352000000     0.769000000     5.709000000
O    -1.275000000     1.469000000    -4.019000000
H    -0.841000000     0.853000000    -3.428000000
H    -0.627000000     1.640000000    -4.703000000
O     4.584000000    -1.477000000    -3.176000000
H     4.498000000    -0.841000000    -3.887000000
H     5.329000000    -2.021000000    -3.430000000
O     3.111000000     3.305000000     2.070000000
H     2.738000000     2.424000000     2.096000000
H     3.444000000     3.398000000     1.178000000
O    -1.794000000    -5.597000000    -0.006000000
H    -2.093000000    -6.204000000    -0.683000000
H    -1.351000000    -4.899000000    -0.489000000
O     4.780000000     0.151000000    -1.062000000
H     4.889000000    -0.323000000    -1.886000000
H     4.185000000     0.870000000    -1.276000000
O    -2.543000000    -3.349000000    -2.855000000
H    -1.925000000    -2.713000000    -2.497000000
H    -2.892000000    -2.928000000    -3.641000000
O    -4.792000000    -5.195000000    -1.762000000
H    -4.216000000    -4.462000000    -1.979000000
H    -5.462000000    -5.184000000    -2.446000000
O     1.450000000     3.403000000    -5.030000000
H     1.321000000     4.346000000    -5.135000000
H     1.247000000     3.235000000    -4.109000000
O    -3.869000000    -1.674000000     4.830000000
H    -3.238000000    -2.363000000     4.621000000
H    -3.368000000    -1.038000000     5.341000000
O     7.443000000     1.693000000    -3.946000000
H     6.492000000     1.787000000    -3.888000000
H     7.709000000     1.409000000    -3.072000000
O     0.949000000     5.116000000     1.082000000
H     1.588000000     4.534000000     1.492000000
H     0.425000000     5.448000000     1.811000000
O    -4.807000000    -2.637000000     1.102000000
H    -5.555000000    -2.914000000     0.572000000
H    -4.262000000    -2.130000000     0.500000000
O     3.557000000    -3.477000000     1.217000000
H     3.119000000    -4.252000000     0.866000000
H     3.894000000    -3.023000000     0.444000000
O    -5.722000000    -0.056000000     3.035000000
H    -5.174000000    -0.648000000     2.520000000
H    -5.973000000    -0.569000000     3.802000000
O    -4.953000000     2.529000000     3.576000000
H    -4.634000000     2.748000000     2.700000000
H    -5.222000000     1.613000000     3.511000000
O    -4.240000000    -0.555000000    -1.051000000
H    -3.308000000    -0.335000000    -1.063000000
H    -4.598000000    -0.123000000    -1.827000000
O     0.629000000    -4.139000000    -1.528000000
H     1.100000000    -4.098000000    -2.360000000
H     1.061000000    -3.489000000    -0.974000000
O    -4.299000000    -4.664000000     4.024000000
H    -3.539000000    -4.306000000     4.482000000
H    -3.927000000    -5.216000000     3.337000000
O    -5.588000000     4.054000000    -0.929000000
H    -4.661000000     4.228000000    -0.766000000
H    -5.773000000     3.258000000    -0.430000000
O    -2.387000000     5.058000000    -0.945000000
H    -2.605000000     4.342000000    -1.541000000
H    -1.517000000     5.344000000    -1.224000000
O     5.110000000     0.312000000     1.862000000
H     5.233000000     0.250000000     0.915000000
H     4.181000000     0.124000000     1.996000000
O    -5.824000000     1.746000000     0.574000000
H    -5.401000000     0.913000000     0.365000000
H    -6.462000000     1.526000000     1.253000000
