144
-2804.81452
O     1.399000000     0.397000000     4.623000000
H     0.577000000     0.472000000     5.108000000
H     1.232000000    -0.285000000     3.973000000
O    -1.023000000     0.561000000     6.410000000
H    -1.458000000     1.227000000     6.943000000
H    -0.518000000     0.044000000     7.038000000
O     3.542000000     0.895000000    -4.989000000
H     3.305000000     0.796000000    -4.068000000
H     2.782000000     1.317000000    -5.389000000
O    -4.755000000     1.791000000     2.807000000
H    -3.845000000     2.087000000     2.825000000
H    -5.161000000     2.219000000     3.561000000
O    -0.495000000    -4.086000000     5.897000000
H    -0.341000000    -4.897000000     6.382000000
H    -0.852000000    -4.375000000     5.057000000
O    -2.744000000    -4.834000000     1.343000000
H    -3.041000000    -3.939000000     1.177000000
H    -2.606000000    -5.206000000     0.472000000
O     3.800000000     3.147000000    -1.947000000
H     4.327000000     3.358000000    -2.717000000
H     3.227000000     2.437000000    -2.237000000
O     0.656000000    -0.493000000    -8.881000000
H     0.871000000    -0.465000000    -7.949000000
H     0.633000000     0.425000000    -9.149000000
O     3.217000000    -2.559000000    -3.613000000
H     3.195000000    -2.613000000    -4.568000000
H     3.039000000    -1.639000000    -3.421000000
O     1.734000000     2.131000000    -6.534000000
H     1.883000000     2.362000000    -7.451000000
H     0.906000000     1.651000000    -6.540000000
O     0.910000000    -4.220000000     2.486000000
H     1.591000000    -4.551000000     3.071000000
H     0.093000000    -4.556000000     2.855000000
O    -5.031000000    -1.484000000     3.233000000
H    -4.514000000    -1.853000000     3.949000000
H    -5.089000000    -0.550000000     3.437000000
O     2.314000000    -2.984000000     6.264000000
H     1.459000000    -3.290000000     5.960000000
H     2.679000000    -3.729000000     6.741000000
O     3.120000000    -3.905000000    -1.141000000
H     2.313000000    -3.803000000    -0.636000000
H     3.037000000    -3.273000000    -1.855000000
O    -1.728000000     2.536000000    -1.546000000
H    -1.304000000     3.294000000    -1.145000000
H    -1.515000000     1.807000000    -0.964000000
O    -0.070000000    -4.986000000    -2.487000000
H     0.365000000    -4.389000000    -1.879000000
H     0.165000000    -5.860000000    -2.175000000
O     2.763000000    -2.845000000    -7.142000000
H     2.071000000    -2.324000000    -6.735000000
H     2.299000000    -3.460000000    -7.709000000
O    -0.644000000     4.298000000    -4.172000000
H    -0.527000000     4.267000000    -3.223000000
H    -1.412000000     4.855000000    -4.301000000
O    -2.519000000     3.528000000     2.111000000
H    -2.014000000     3.645000000     1.306000000
H    -3.309000000     4.051000000     1.975000000
O     3.217000000     5.163000000    -0.204000000
H     2.879000000     5.815000000    -0.818000000
H     3.475000000     4.425000000    -0.756000000
O     5.015000000    -0.090000000    -1.832000000
H     5.120000000    -0.542000000    -0.995000000
H     4.074000000     0.066000000    -1.904000000
O    -4.699000000    -2.105000000    -3.981000000
H    -4.521000000    -2.908000000    -4.470000000
H    -4.085000000    -1.464000000    -4.340000000
O    -2.707000000    -0.537000000    -5.165000000
H    -2.130000000     0.226000000    -5.130000000
H    -2.157000000    -1.237000000    -5.516000000
O     6.092000000     2.180000000    -5.472000000
H     5.155000000     2.012000000    -5.565000000
H     6.239000000     2.994000000    -5.953000000
O    -0.998000000     4.445000000     4.707000000
H    -0.327000000     5.028000000     4.352000000
H    -1.179000000     3.828000000     3.998000000
O    -3.069000000    -1.324000000     5.598000000
H    -2.298000000    -1.337000000     6.165000000
H    -2.828000000    -0.741000000     4.878000000
O    -4.411000000    -4.721000000     3.957000000
H    -4.035000000    -4.578000000     3.089000000
H    -3.670000000    -4.999000000     4.496000000
O    -1.418000000    -5.109000000     3.671000000
H    -1.858000000    -5.215000000     2.828000000
H    -1.291000000    -6.003000000     3.989000000
O     2.516000000    -1.735000000     1.877000000
H     1.947000000    -2.468000000     2.111000000
H     2.063000000    -1.300000000     1.155000000
O    -5.269000000    -1.033000000     0.512000000
H    -5.150000000    -1.235000000     1.440000000
H    -5.127000000    -1.867000000     0.065000000
O     0.212000000     6.272000000     2.702000000
H     0.658000000     7.102000000     2.528000000
H     0.077000000     5.888000000     1.836000000
O    -0.888000000     1.347000000    -4.809000000
H    -0.224000000     0.912000000    -4.274000000
H    -0.807000000     2.274000000    -4.584000000
O     6.719000000    -0.189000000    -4.096000000
H     6.475000000     0.648000000    -4.490000000
H     6.133000000    -0.280000000    -3.344000000
O    -1.446000000    -2.704000000    -6.378000000
H    -1.680000000    -2.972000000    -7.267000000
H    -1.625000000    -3.475000000    -5.840000000
O     0.613000000    -3.319000000    -0.109000000
H     0.834000000    -3.540000000     0.796000000
H     0.214000000    -2.451000000    -0.052000000
O     4.927000000    -0.608000000     0.886000000
H     5.332000000    -0.013000000     1.517000000
H     4.232000000    -1.043000000     1.379000000
O    -2.899000000    -5.783000000    -1.368000000
H    -3.363000000    -6.052000000    -2.161000000
H    -2.021000000    -5.552000000    -1.672000000
O     4.775000000    -1.060000000    -6.320000000
H     4.485000000    -0.277000000    -5.851000000
H     3.968000000    -1.533000000    -6.520000000
O     0.890000000    -1.196000000    -5.937000000
H     0.826000000    -0.701000000    -5.121000000
H     0.035000000    -1.617000000    -6.030000000
O     4.083000000     3.964000000     1.909000000
H     4.364000000     4.711000000     2.437000000
H     3.631000000     4.356000000     1.161000000
O     2.501000000    -5.454000000    -4.187000000
H     3.151000000    -5.710000000    -3.533000000
H     2.134000000    -4.635000000    -3.854000000
O     3.779000000     1.639000000     3.986000000
H     3.691000000     2.177000000     3.199000000
H     2.888000000     1.345000000     4.176000000
O     5.963000000     2.702000000     0.056000000
H     5.351000000     3.104000000     0.672000000
H     5.411000000     2.176000000    -0.522000000
O    -4.056000000    -2.905000000    -1.414000000
H    -4.243000000    -2.367000000    -2.184000000
H    -4.074000000    -3.804000000    -1.741000000
O    -2.157000000    -3.962000000    -3.856000000
H    -2.301000000    -3.133000000    -3.399000000
H    -1.394000000    -4.344000000    -3.423000000
O    -5.071000000     1.886000000     0.210000000
H    -4.889000000     1.964000000     1.147000000
H    -5.389000000     0.990000000     0.102000000
O    -3.829000000     1.453000000    -2.941000000
H    -4.294000000     1.277000000    -2.123000000
H    -3.120000000     2.046000000    -2.690000000
O    -0.663000000    -2.008000000     7.545000000
H    -0.710000000    -2.748000000     6.939000000
H    -0.281000000    -2.376000000     8.342000000
