144
-2814.75750
O    -0.492000000     0.676000000     6.754000000
H    -1.090000000     1.282000000     7.191000000
H     0.381000000     0.990000000     6.989000000
O     3.165000000     2.335000000    -4.466000000
H     2.459000000     2.127000000    -5.079000000
H     3.021000000     1.746000000    -3.726000000
O    -2.495000000    -0.854000000     5.279000000
H    -2.152000000    -0.173000000     5.857000000
H    -1.935000000    -0.815000000     4.504000000
O    -4.372000000    -3.226000000     2.793000000
H    -4.865000000    -3.268000000     1.973000000
H    -5.034000000    -3.043000000     3.460000000
O     1.345000000     4.917000000     0.661000000
H     0.438000000     4.754000000     0.404000000
H     1.330000000     5.788000000     1.056000000
O    -2.325000000    -5.184000000     1.859000000
H    -2.875000000    -5.711000000     1.279000000
H    -2.836000000    -4.390000000     2.017000000
O     0.212000000    -4.375000000     2.714000000
H    -0.622000000    -4.775000000     2.469000000
H     0.070000000    -4.052000000     3.604000000
O     5.450000000    -3.510000000    -1.714000000
H     5.376000000    -2.621000000    -1.366000000
H     5.948000000    -3.409000000    -2.525000000
O    -2.839000000     2.082000000    -0.754000000
H    -2.900000000     1.260000000    -0.268000000
H    -2.048000000     1.989000000    -1.286000000
O    -1.033000000    -3.831000000    -1.831000000
H    -0.312000000    -4.460000000    -1.856000000
H    -1.120000000    -3.531000000    -2.736000000
O     5.175000000    -0.271000000    -3.859000000
H     4.360000000    -0.211000000    -3.362000000
H     5.011000000     0.239000000    -4.652000000
O     6.282000000     1.773000000     1.460000000
H     5.509000000     1.783000000     0.895000000
H     6.938000000     1.288000000     0.961000000
O    -2.351000000    -3.972000000     4.854000000
H    -2.688000000    -4.791000000     5.217000000
H    -3.012000000    -3.703000000     4.215000000
O     1.404000000     1.482000000    -6.199000000
H     1.754000000     0.601000000    -6.062000000
H     1.708000000     1.726000000    -7.073000000
O     1.982000000    -1.472000000     3.965000000
H     1.862000000    -0.579000000     4.287000000
H     1.358000000    -1.994000000     4.470000000
O    -4.029000000     4.483000000     1.199000000
H    -4.856000000     4.914000000     0.981000000
H    -4.289000000     3.630000000     1.547000000
O    -1.623000000     4.086000000     2.998000000
H    -2.394000000     3.897000000     2.462000000
H    -1.972000000     4.221000000     3.879000000
O     4.818000000    -1.105000000    -0.871000000
H     4.117000000    -0.639000000    -1.327000000
H     4.478000000    -1.244000000     0.012000000
O    -1.269000000     4.815000000    -0.340000000
H    -1.877000000     4.076000000    -0.292000000
H    -1.650000000     5.476000000     0.237000000
O     4.787000000     2.185000000    -1.095000000
H     4.227000000     1.601000000    -1.607000000
H     5.653000000     1.780000000    -1.134000000
O     1.190000000    -3.755000000    -6.047000000
H     0.783000000    -3.493000000    -6.873000000
H     0.810000000    -3.166000000    -5.396000000
O    -2.671000000    -2.404000000     7.750000000
H    -2.723000000    -2.109000000     6.841000000
H    -3.279000000    -3.142000000     7.798000000
O     4.889000000     4.623000000    -4.573000000
H     5.764000000     4.529000000    -4.196000000
H     4.536000000     3.733000000    -4.583000000
O    -3.044000000    -5.668000000    -0.729000000
H    -2.496000000    -6.414000000    -0.972000000
H    -2.423000000    -4.956000000    -0.573000000
O    -1.856000000     4.070000000     6.154000000
H    -1.375000000     3.656000000     6.871000000
H    -2.660000000     3.556000000     6.078000000
O     7.212000000     0.337000000    -0.696000000
H     7.931000000    -0.276000000    -0.544000000
H     6.448000000    -0.222000000    -0.840000000
O     1.384000000    -2.819000000     0.074000000
H     1.004000000    -3.446000000     0.690000000
H     0.855000000    -2.028000000     0.180000000
O     4.046000000     4.092000000     1.195000000
H     3.214000000     4.523000000     1.002000000
H     4.054000000     3.321000000     0.628000000
O     0.101000000    -3.099000000     5.298000000
H     0.243000000    -2.808000000     6.198000000
H    -0.802000000    -3.415000000     5.288000000
O    -0.889000000     0.155000000    -7.185000000
H    -1.576000000     0.773000000    -6.934000000
H    -0.356000000     0.634000000    -7.819000000
O     2.914000000    -4.422000000    -1.957000000
H     3.817000000    -4.105000000    -1.945000000
H     2.479000000    -3.931000000    -1.260000000
O     2.579000000    -1.287000000    -5.759000000
H     2.199000000    -1.369000000    -4.884000000
H     2.060000000    -1.880000000    -6.302000000
O     7.393000000     1.683000000    -3.559000000
H     6.766000000     0.975000000    -3.705000000
H     8.092000000     1.518000000    -4.191000000
O     3.473000000    -1.565000000     1.307000000
H     3.285000000    -1.726000000     2.232000000
H     2.776000000    -2.023000000     0.838000000
O    -5.154000000    -4.155000000     0.343000000
H    -4.563000000    -4.728000000    -0.147000000
H    -5.030000000    -3.291000000    -0.049000000
O     6.952000000    -2.281000000    -4.010000000
H     6.671000000    -2.648000000    -4.848000000
H     6.333000000    -1.571000000    -3.840000000
O    -0.447000000    -1.310000000    -5.074000000
H     0.092000000    -0.878000000    -4.413000000
H    -0.520000000    -0.669000000    -5.781000000
O     1.018000000     3.586000000     3.246000000
H     1.382000000     3.795000000     2.386000000
H     0.070000000     3.622000000     3.120000000
O    -2.245000000     1.439000000    -4.199000000
H    -2.274000000     0.596000000    -3.747000000
H    -3.065000000     1.475000000    -4.692000000
O     1.757000000     1.238000000     4.739000000
H     1.337000000     2.061000000     4.487000000
H     2.660000000     1.483000000     4.940000000
O    -4.323000000    -1.785000000    -0.946000000
H    -4.587000000    -0.884000000    -0.760000000
H    -3.840000000    -1.728000000    -1.771000000
O    -3.881000000     2.419000000     4.885000000
H    -3.972000000     1.470000000     4.799000000
H    -4.362000000     2.775000000     4.138000000
O    -3.045000000    -1.506000000    -3.562000000
H    -3.882000000    -1.304000000    -3.981000000
H    -2.449000000    -1.684000000    -4.290000000
O     3.927000000     5.170000000    -1.747000000
H     4.235000000     4.989000000    -2.635000000
H     3.870000000     4.310000000    -1.332000000
O    -5.859000000     0.510000000    -0.442000000
H    -5.764000000     1.378000000    -0.834000000
H    -6.703000000     0.541000000     0.007000000
O    -0.581000000     3.248000000    -5.246000000
H    -1.250000000     2.868000000    -4.676000000
H     0.055000000     2.544000000    -5.371000000
O    -6.399000000    -0.471000000     4.823000000
H    -7.291000000    -0.684000000     4.549000000
H    -5.844000000    -1.056000000     4.308000000
O     4.191000000    -0.050000000    -7.744000000
H     3.553000000    -0.338000000    -7.092000000
H     3.662000000     0.231000000    -8.490000000
