144
-2816.33206
O     3.445000000     2.517000000     2.103000000
H     2.729000000     2.822000000     1.545000000
H     3.615000000     3.248000000     2.696000000
O     4.712000000     3.404000000     5.375000000
H     4.195000000     2.612000000     5.521000000
H     4.190000000     3.920000000     4.760000000
O     3.003000000     1.174000000     5.042000000
H     3.312000000     1.099000000     4.139000000
H     3.488000000     0.500000000     5.518000000
O    -2.342000000    -0.340000000     5.893000000
H    -1.996000000     0.500000000     5.593000000
H    -3.292000000    -0.246000000     5.825000000
O     0.940000000    -3.874000000    -5.619000000
H     0.596000000    -4.267000000    -4.817000000
H     0.571000000    -2.991000000    -5.630000000
O     0.908000000    -3.343000000     3.440000000
H     0.828000000    -4.295000000     3.387000000
H     0.394000000    -3.101000000     4.210000000
O    -0.838000000     5.436000000     0.616000000
H    -1.419000000     5.816000000    -0.043000000
H    -0.696000000     6.143000000     1.246000000
O    -0.635000000    -0.436000000    -6.132000000
H     0.187000000     0.025000000    -6.299000000
H    -0.539000000    -0.782000000    -5.244000000
O    -0.250000000     2.782000000    -1.448000000
H    -0.282000000     2.085000000    -0.793000000
H    -0.804000000     2.466000000    -2.162000000
O     2.350000000    -3.211000000    -2.322000000
H     2.118000000    -3.927000000    -2.914000000
H     1.705000000    -2.529000000    -2.506000000
O    -5.027000000    -0.317000000     4.796000000
H    -5.106000000    -1.261000000     4.936000000
H    -4.915000000    -0.224000000     3.850000000
O    -1.959000000     2.187000000     5.067000000
H    -1.946000000     2.912000000     4.442000000
H    -2.274000000     2.579000000     5.881000000
O     3.252000000     2.665000000    -5.628000000
H     2.900000000     3.555000000    -5.630000000
H     3.951000000     2.682000000    -6.282000000
O    -2.821000000    -2.379000000    -3.368000000
H    -2.104000000    -1.794000000    -3.611000000
H    -2.590000000    -2.691000000    -2.492000000
O    -5.407000000    -0.430000000     1.904000000
H    -4.834000000    -1.117000000     1.564000000
H    -6.196000000    -0.487000000     1.365000000
O    -5.129000000    -2.111000000    -4.352000000
H    -4.445000000    -2.390000000    -3.744000000
H    -5.848000000    -2.725000000    -4.201000000
O    -2.118000000     4.031000000     2.666000000
H    -1.730000000     4.322000000     1.841000000
H    -2.613000000     3.245000000     2.434000000
O     3.566000000    -1.049000000    -5.139000000
H     4.155000000    -1.508000000    -4.540000000
H     2.746000000    -0.968000000    -4.653000000
O     3.968000000    -5.066000000    -0.769000000
H     3.471000000    -4.911000000     0.035000000
H     3.724000000    -4.341000000    -1.345000000
O     1.293000000     1.045000000    -7.243000000
H     2.064000000     1.135000000    -6.682000000
H     1.598000000     0.527000000    -7.987000000
O     6.777000000     1.192000000    -0.949000000
H     6.275000000     0.406000000    -1.163000000
H     6.170000000     1.914000000    -1.109000000
O     2.413000000    -4.705000000     1.519000000
H     3.188000000    -4.708000000     2.079000000
H     1.973000000    -3.879000000     1.722000000
O    -2.596000000    -2.800000000    -6.490000000
H    -2.757000000    -2.523000000    -5.588000000
H    -2.584000000    -1.986000000    -6.993000000
O    -3.153000000    -0.136000000    -6.842000000
H    -2.231000000    -0.364000000    -6.718000000
H    -3.139000000     0.576000000    -7.482000000
O     1.807000000     4.016000000    -2.618000000
H     1.099000000     3.615000000    -2.114000000
H     2.302000000     3.274000000    -2.967000000
O    -3.823000000     1.541000000     2.760000000
H    -3.577000000     1.085000000     3.566000000
H    -4.367000000     0.911000000     2.286000000
O    -3.598000000     4.472000000     5.271000000
H    -3.630000000     4.139000000     4.374000000
H    -2.862000000     5.084000000     5.274000000
O    -1.410000000     1.997000000    -4.133000000
H    -2.360000000     1.952000000    -4.026000000
H    -1.136000000     1.084000000    -4.225000000
O     0.484000000     5.425000000     3.798000000
H     0.252000000     5.557000000     4.717000000
H    -0.280000000     5.733000000     3.311000000
O    -3.241000000    -4.139000000     3.428000000
H    -3.470000000    -3.436000000     4.037000000
H    -2.525000000    -3.779000000     2.905000000
O     4.872000000     0.260000000     2.742000000
H     4.372000000     0.982000000     2.360000000
H     4.245000000    -0.461000000     2.799000000
O     4.580000000     2.724000000    -1.760000000
H     4.155000000     3.557000000    -1.962000000
H     4.178000000     2.098000000    -2.362000000
O    -1.549000000    -2.720000000     1.838000000
H    -0.708000000    -2.929000000     2.246000000
H    -1.475000000    -1.796000000     1.597000000
O     0.708000000     1.202000000     6.427000000
H    -0.029000000     1.406000000     5.851000000
H     1.475000000     1.236000000     5.856000000
O    -4.121000000     0.441000000    -4.205000000
H    -3.701000000     0.523000000    -5.061000000
H    -4.262000000    -0.499000000    -4.096000000
O     4.514000000    -1.122000000    -0.042000000
H     4.686000000    -0.487000000     0.654000000
H     3.954000000    -1.781000000     0.369000000
O    -1.909000000    -3.803000000    -0.893000000
H    -1.328000000    -3.945000000    -0.146000000
H    -2.522000000    -4.537000000    -0.863000000
O    -0.204000000    -4.774000000    -3.365000000
H    -0.447000000    -5.685000000    -3.529000000
H    -0.288000000    -4.671000000    -2.417000000
O     3.368000000    -2.166000000     2.955000000
H     3.794000000    -2.492000000     3.748000000
H     2.435000000    -2.321000000     3.103000000
O    -0.720000000     2.912000000    -6.897000000
H    -0.086000000     2.232000000    -7.123000000
H    -0.998000000     2.695000000    -6.008000000
O     1.168000000     3.832000000     1.566000000
H     1.034000000     4.188000000     2.444000000
H     0.365000000     4.052000000     1.094000000
O     5.210000000    -0.599000000    -2.777000000
H     4.439000000    -0.160000000    -3.137000000
H     4.887000000    -1.053000000    -1.999000000
O    -6.244000000     1.290000000    -2.374000000
H    -6.926000000     0.647000000    -2.567000000
H    -5.560000000     1.114000000    -3.020000000
O     5.469000000     0.219000000    -6.724000000
H     5.083000000     0.621000000    -7.502000000
H     4.718000000    -0.074000000    -6.208000000
O    -4.092000000    -2.487000000     0.595000000
H    -3.240000000    -2.763000000     0.932000000
H    -4.100000000    -2.791000000    -0.313000000
O     2.783000000     1.374000000    -3.195000000
H     2.989000000     1.492000000    -4.123000000
H     2.087000000     0.718000000    -3.185000000
O    -7.201000000     2.205000000     2.487000000
H    -7.644000000     1.530000000     3.001000000
H    -6.289000000     1.916000000     2.446000000
O    -0.548000000    -2.721000000     5.936000000
H    -0.999000000    -1.901000000     6.139000000
H    -0.722000000    -3.283000000     6.690000000
