144
-2825.87534
O     4.383000000     1.757000000     1.564000000
H     4.130000000     1.329000000     0.746000000
H     4.859000000     1.083000000     2.050000000
O    -3.366000000     2.239000000     2.849000000
H    -3.673000000     1.336000000     2.925000000
H    -3.901000000     2.616000000     2.150000000
O    -2.103000000    -4.898000000     4.047000000
H    -1.703000000    -5.715000000     3.751000000
H    -1.394000000    -4.257000000     4.009000000
O     2.476000000    -5.471000000    -0.685000000
H     2.365000000    -4.542000000    -0.889000000
H     1.611000000    -5.853000000    -0.832000000
O    -0.490000000     3.140000000    -3.059000000
H    -0.637000000     2.458000000    -2.404000000
H    -0.747000000     3.952000000    -2.622000000
O    -1.830000000    -4.763000000    -2.731000000
H    -1.057000000    -4.575000000    -2.198000000
H    -2.479000000    -4.120000000    -2.445000000
O    -1.720000000     4.912000000     2.486000000
H    -2.305000000     4.183000000     2.280000000
H    -2.305000000     5.657000000     2.622000000
O     5.821000000    -2.059000000     0.769000000
H     6.537000000    -2.683000000     0.654000000
H     5.262000000    -2.192000000     0.003000000
O     1.084000000    -7.987000000    -1.733000000
H     1.302000000    -8.892000000    -1.958000000
H     1.202000000    -7.503000000    -2.550000000
O     1.276000000     4.623000000     5.120000000
H     1.863000000     3.989000000     4.709000000
H     1.817000000     5.057000000     5.781000000
O    -4.123000000     4.036000000     0.881000000
H    -4.867000000     4.619000000     1.027000000
H    -4.248000000     3.707000000    -0.010000000
O     4.688000000     0.536000000    -1.019000000
H     4.307000000     0.713000000    -1.879000000
H     4.646000000    -0.417000000    -0.930000000
O     2.976000000    -1.587000000    -4.056000000
H     2.448000000    -1.299000000    -4.801000000
H     2.669000000    -2.475000000    -3.874000000
O    -3.617000000    -6.278000000    -3.735000000
H    -3.950000000    -7.007000000    -3.212000000
H    -2.901000000    -5.916000000    -3.213000000
O     4.546000000    -6.772000000     0.232000000
H     3.807000000    -6.323000000    -0.177000000
H     4.268000000    -7.686000000     0.292000000
O     2.654000000     6.144000000     1.986000000
H     3.431000000     5.642000000     1.743000000
H     2.887000000     6.560000000     2.816000000
O    -2.035000000     0.225000000    -2.487000000
H    -2.925000000     0.569000000    -2.417000000
H    -1.800000000    -0.016000000    -1.591000000
O     2.428000000     7.036000000    -2.203000000
H     2.000000000     7.552000000    -1.519000000
H     2.615000000     6.195000000    -1.786000000
O     2.621000000    -2.988000000     1.531000000
H     2.518000000    -2.190000000     2.050000000
H     2.189000000    -2.791000000     0.700000000
O     4.652000000    -6.559000000    -2.746000000
H     3.794000000    -6.133000000    -2.748000000
H     5.278000000    -5.835000000    -2.748000000
O    -2.591000000    -1.326000000     4.206000000
H    -3.243000000    -0.912000000     3.641000000
H    -2.896000000    -1.146000000     5.095000000
O     1.544000000    -4.121000000    -4.017000000
H     1.429000000    -4.097000000    -3.067000000
H     1.839000000    -5.013000000    -4.200000000
O     3.246000000     4.507000000    -1.012000000
H     3.339000000     4.450000000    -0.061000000
H     4.096000000     4.227000000    -1.353000000
O     1.013000000    -5.059000000     2.489000000
H     1.747000000    -4.926000000     1.889000000
H     0.676000000    -4.179000000     2.654000000
O     4.136000000    -2.176000000    -1.249000000
H     3.260000000    -2.524000000    -1.417000000
H     4.562000000    -2.174000000    -2.106000000
O     0.100000000     5.880000000     0.617000000
H     0.846000000     5.675000000     1.181000000
H    -0.658000000     5.535000000     1.089000000
O     5.675000000    -0.804000000    -4.863000000
H     5.186000000    -0.194000000    -4.311000000
H     5.272000000    -1.656000000    -4.695000000
O     0.027000000     0.520000000     4.196000000
H     0.033000000     1.355000000     4.664000000
H    -0.834000000     0.485000000     3.780000000
O    -4.280000000     3.965000000     4.824000000
H    -3.726000000     3.577000000     4.146000000
H    -4.893000000     4.521000000     4.343000000
O     4.352000000     1.353000000    -3.575000000
H     3.423000000     1.358000000    -3.807000000
H     4.736000000     2.049000000    -4.109000000
O    -4.653000000    -4.473000000     1.195000000
H    -4.826000000    -5.344000000     1.553000000
H    -3.827000000    -4.208000000     1.598000000
O     1.696000000     1.920000000    -4.230000000
H     1.017000000     2.373000000    -3.730000000
H     1.213000000     1.388000000    -4.862000000
O     0.125000000    -7.874000000     0.748000000
H    -0.383000000    -7.063000000     0.768000000
H     0.461000000    -7.925000000    -0.146000000
O    -3.807000000     3.833000000    -1.766000000
H    -2.950000000     4.248000000    -1.863000000
H    -4.433000000     4.551000000    -1.859000000
O     0.017000000     7.034000000     4.123000000
H     0.545000000     6.365000000     3.687000000
H    -0.829000000     6.611000000     4.272000000
O    -0.322000000    -3.270000000    -5.916000000
H     0.388000000    -3.447000000    -5.299000000
H    -1.001000000    -2.852000000    -5.386000000
O    -4.808000000     1.423000000    -2.682000000
H    -4.821000000     2.341000000    -2.412000000
H    -5.546000000     1.340000000    -3.286000000
O    -0.054000000    -2.409000000     3.227000000
H     0.464000000    -1.733000000     2.790000000
H    -0.772000000    -1.930000000     3.641000000
O    -5.238000000     1.151000000     0.017000000
H    -5.330000000     1.296000000    -0.925000000
H    -5.893000000     1.726000000     0.413000000
O     2.917000000     2.725000000     3.955000000
H     2.781000000     1.894000000     4.409000000
H     3.373000000     2.486000000     3.148000000
O     1.914000000    -0.429000000     2.274000000
H     1.790000000     0.202000000     1.565000000
H     1.630000000     0.036000000     3.061000000
O     4.543000000    -4.895000000     2.393000000
H     4.734000000    -5.533000000     1.705000000
H     4.175000000    -4.144000000     1.927000000
O    -3.738000000    -2.810000000    -1.597000000
H    -4.327000000    -2.729000000    -0.848000000
H    -3.712000000    -1.932000000    -1.978000000
O    -1.555000000     5.486000000    -2.085000000
H    -1.575000000     6.325000000    -2.546000000
H    -1.029000000     5.655000000    -1.303000000
O    -4.325000000    -0.268000000     2.346000000
H    -4.966000000    -0.974000000     2.421000000
H    -4.542000000     0.167000000     1.521000000
O     2.132000000    -6.662000000    -4.217000000
H     2.834000000    -6.961000000    -4.795000000
H     1.402000000    -7.253000000    -4.399000000
O    -1.072000000     2.897000000     5.365000000
H    -0.419000000     3.540000000     5.642000000
H    -1.471000000     3.283000000     4.584000000
O    -1.425000000    -5.402000000     0.792000000
H    -1.209000000    -5.000000000     1.633000000
H    -1.037000000    -4.818000000     0.140000000
