144
-2793.77826
O     7.052000000    -1.437000000    -3.082000000
H     7.933000000    -1.087000000    -3.210000000
H     7.124000000    -1.987000000    -2.302000000
O    -4.084000000     5.604000000     3.430000000
H    -4.499000000     4.746000000     3.344000000
H    -4.284000000     6.051000000     2.608000000
O     1.792000000     2.269000000    -3.295000000
H     1.633000000     2.405000000    -4.230000000
H     1.097000000     2.763000000    -2.861000000
O     3.215000000    -5.703000000    -1.115000000
H     4.019000000    -6.180000000    -1.320000000
H     3.516000000    -4.878000000    -0.735000000
O     2.202000000     2.878000000     0.640000000
H     1.842000000     2.015000000     0.848000000
H     3.083000000     2.697000000     0.311000000
O     4.951000000    -0.409000000     0.419000000
H     5.736000000    -0.465000000    -0.127000000
H     4.280000000    -0.877000000    -0.078000000
O    -5.854000000     3.288000000     3.721000000
H    -6.405000000     3.137000000     4.489000000
H    -5.731000000     2.418000000     3.340000000
O     3.454000000    -4.195000000    -4.057000000
H     2.597000000    -4.020000000    -3.666000000
H     3.285000000    -4.231000000    -4.998000000
O     1.582000000    -7.007000000    -3.192000000
H     0.946000000    -6.469000000    -3.664000000
H     1.992000000    -6.405000000    -2.572000000
O     0.099000000     3.127000000    -5.817000000
H     0.875000000     2.783000000    -6.260000000
H    -0.625000000     2.603000000    -6.160000000
O    -2.427000000     6.150000000    -2.722000000
H    -3.335000000     6.015000000    -2.452000000
H    -1.908000000     5.823000000    -1.988000000
O    -0.529000000     4.608000000     3.058000000
H    -1.025000000     5.045000000     3.750000000
H    -0.130000000     5.322000000     2.561000000
O    -0.043000000     1.462000000     6.618000000
H     0.021000000     1.570000000     5.669000000
H    -0.516000000     2.239000000     6.916000000
O     4.094000000    -3.417000000     0.931000000
H     4.888000000    -3.013000000     1.281000000
H     3.936000000    -2.958000000     0.106000000
O     5.069000000    -3.381000000    -1.976000000
H     4.517000000    -2.767000000    -1.492000000
H     4.610000000    -3.513000000    -2.805000000
O     7.585000000    -4.456000000    -1.089000000
H     7.803000000    -5.294000000    -1.497000000
H     6.641000000    -4.364000000    -1.219000000
O     1.866000000    -4.430000000    -6.399000000
H     1.977000000    -5.063000000    -7.108000000
H     1.815000000    -3.582000000    -6.841000000
O     3.837000000    -0.397000000    -3.981000000
H     3.074000000    -0.722000000    -3.503000000
H     4.240000000    -1.182000000    -4.352000000
O    -5.599000000    -0.631000000     3.331000000
H    -4.819000000    -1.105000000     3.043000000
H    -5.623000000     0.150000000     2.778000000
O     4.676000000     2.305000000    -0.253000000
H     4.968000000     1.403000000    -0.122000000
H     4.796000000     2.462000000    -1.190000000
O     2.237000000     0.038000000     6.720000000
H     1.653000000    -0.657000000     6.416000000
H     1.688000000     0.823000000     6.735000000
O     4.159000000    -2.639000000     5.195000000
H     4.411000000    -2.157000000     4.407000000
H     4.976000000    -3.026000000     5.511000000
O    -0.076000000    -2.332000000    -4.018000000
H    -0.216000000    -1.490000000    -4.451000000
H     0.745000000    -2.222000000    -3.539000000
O     2.472000000     1.129000000    -5.890000000
H     3.076000000     1.100000000    -6.633000000
H     3.017000000     0.926000000    -5.130000000
O     0.732000000     2.273000000     3.863000000
H     0.490000000     3.162000000     3.603000000
H     0.093000000     1.713000000     3.422000000
O    -6.556000000     1.473000000     1.733000000
H    -6.923000000     0.638000000     1.443000000
H    -5.905000000     1.692000000     1.067000000
O    -2.288000000    -3.288000000    -2.606000000
H    -2.085000000    -3.043000000    -1.703000000
H    -1.557000000    -2.943000000    -3.118000000
O     5.985000000     1.318000000    -4.096000000
H     6.269000000     0.721000000    -3.404000000
H     5.220000000     0.891000000    -4.482000000
O    -0.846000000    -3.660000000     2.723000000
H    -1.694000000    -3.817000000     2.306000000
H    -0.307000000    -4.405000000     2.458000000
O    -1.559000000    -2.526000000    -0.074000000
H    -1.102000000    -3.007000000     0.616000000
H    -1.183000000    -1.647000000    -0.042000000
O     5.181000000    -6.105000000    -3.626000000
H     5.986000000    -5.587000000    -3.647000000
H     4.485000000    -5.462000000    -3.493000000
O    -7.041000000    -1.078000000     0.666000000
H    -6.121000000    -0.927000000     0.448000000
H    -7.179000000    -2.008000000     0.489000000
O    -4.106000000     1.415000000    -3.058000000
H    -3.245000000     1.145000000    -3.375000000
H    -4.424000000     2.029000000    -3.720000000
O    -1.904000000    -2.905000000    -6.795000000
H    -1.570000000    -2.160000000    -6.296000000
H    -1.314000000    -2.975000000    -7.545000000
O    -0.401000000    -0.553000000    -5.919000000
H    -1.051000000     0.144000000    -5.831000000
H     0.379000000    -0.112000000    -6.257000000
O     3.645000000     1.099000000     4.667000000
H     3.451000000     0.717000000     5.523000000
H     2.810000000     1.463000000     4.372000000
O     0.733000000     4.413000000    -0.981000000
H     0.131000000     4.818000000    -0.356000000
H     1.341000000     3.911000000    -0.437000000
O    -5.484000000     2.216000000    -0.753000000
H    -4.821000000     2.079000000    -1.430000000
H    -5.674000000     3.153000000    -0.789000000
O    -5.796000000    -0.764000000    -3.231000000
H    -5.012000000    -0.264000000    -3.002000000
H    -6.048000000    -0.432000000    -4.093000000
O     1.469000000    -2.404000000     5.644000000
H     1.285000000    -3.311000000     5.397000000
H     2.400000000    -2.288000000     5.455000000
O     4.946000000    -0.990000000     2.955000000
H     4.436000000    -0.221000000     3.209000000
H     5.110000000    -0.870000000     2.020000000
O     0.278000000    -4.912000000    -4.430000000
H    -0.079000000    -4.064000000    -4.168000000
H     0.942000000    -4.701000000    -5.087000000
O    -1.777000000     5.460000000     0.418000000
H    -2.550000000     5.920000000     0.745000000
H    -1.555000000     4.840000000     1.112000000
O    -2.109000000     1.621000000    -6.155000000
H    -2.990000000     1.958000000    -5.994000000
H    -2.176000000     1.169000000    -6.996000000
O    -1.768000000    -2.319000000     5.435000000
H    -1.870000000    -2.611000000     4.529000000
H    -0.822000000    -2.240000000     5.557000000
O    -4.354000000    -1.791000000     0.968000000
H    -3.433000000    -1.707000000     0.720000000
H    -4.515000000    -2.735000000     0.973000000
O     4.557000000     3.144000000    -2.728000000
H     3.662000000     3.003000000    -3.037000000
H     5.086000000     2.528000000    -3.235000000
O     4.309000000    -5.670000000     2.419000000
H     5.247000000    -5.608000000     2.600000000
H     4.144000000    -4.985000000     1.771000000
