144
-2801.78933
O    -4.754000000    -5.530000000     4.907000000
H    -5.451000000    -4.908000000     4.698000000
H    -4.162000000    -5.487000000     4.157000000
O    -3.329000000    -4.692000000     2.811000000
H    -2.651000000    -4.369000000     2.216000000
H    -3.776000000    -3.902000000     3.115000000
O    -6.395000000     2.794000000     0.435000000
H    -5.861000000     2.049000000     0.159000000
H    -7.277000000     2.435000000     0.531000000
O     0.518000000     2.311000000    -3.592000000
H     0.506000000     1.360000000    -3.484000000
H    -0.175000000     2.626000000    -3.011000000
O    -2.471000000    -5.470000000    -3.394000000
H    -1.757000000    -4.850000000    -3.540000000
H    -2.707000000    -5.352000000    -2.474000000
O    -3.414000000    -4.938000000    -0.919000000
H    -3.054000000    -4.158000000    -0.498000000
H    -3.346000000    -5.623000000    -0.254000000
O    -0.011000000     3.701000000    -5.834000000
H     0.375000000     3.331000000    -6.628000000
H     0.139000000     3.036000000    -5.162000000
O     3.436000000    -0.838000000    -3.283000000
H     3.891000000    -1.328000000    -3.967000000
H     3.974000000    -0.057000000    -3.150000000
O     2.487000000     6.530000000    -3.377000000
H     2.189000000     7.427000000    -3.526000000
H     1.682000000     6.023000000    -3.275000000
O     3.502000000     5.528000000    -0.984000000
H     4.320000000     5.031000000    -1.004000000
H     3.422000000     5.893000000    -1.865000000
O    -0.673000000    -3.190000000    -3.381000000
H     0.138000000    -3.685000000    -3.501000000
H    -0.385000000    -2.328000000    -3.080000000
O    -6.509000000    -5.208000000     1.739000000
H    -7.203000000    -4.919000000     2.331000000
H    -6.036000000    -4.407000000     1.514000000
O     6.548000000     3.897000000     3.342000000
H     5.654000000     3.884000000     3.000000000
H     6.569000000     3.188000000     3.984000000
O    -4.637000000     1.901000000    -2.681000000
H    -4.703000000     1.531000000    -1.801000000
H    -4.739000000     1.149000000    -3.265000000
O    -3.308000000    -6.960000000     0.754000000
H    -3.819000000    -7.723000000     1.025000000
H    -3.224000000    -6.434000000     1.550000000
O    -3.916000000    -1.256000000    -5.572000000
H    -4.711000000    -1.785000000    -5.502000000
H    -3.560000000    -1.240000000    -4.683000000
O     5.827000000     4.450000000    -1.864000000
H     5.747000000     4.360000000    -2.813000000
H     6.662000000     4.031000000    -1.654000000
O     1.615000000     6.537000000     1.044000000
H     2.192000000     5.960000000     0.544000000
H     1.584000000     7.346000000     0.532000000
O    -0.488000000    -5.505000000     1.585000000
H     0.076000000    -5.873000000     0.905000000
H    -0.757000000    -4.655000000     1.239000000
O    -0.976000000     6.886000000     1.339000000
H    -0.039000000     6.693000000     1.357000000
H    -1.168000000     7.223000000     2.214000000
O    -2.096000000     4.586000000     0.021000000
H    -2.924000000     4.558000000     0.502000000
H    -1.701000000     5.421000000     0.273000000
O     3.747000000     3.376000000     3.631000000
H     2.832000000     3.117000000     3.740000000
H     4.248000000     2.645000000     3.994000000
O    -1.437000000    -7.586000000     3.258000000
H    -1.265000000    -6.696000000     2.949000000
H    -1.893000000    -7.466000000     4.091000000
O     1.668000000    -5.355000000    -0.285000000
H     2.222000000    -4.627000000    -0.568000000
H     1.379000000    -5.766000000    -1.099000000
O    -7.651000000    -2.602000000    -0.460000000
H    -7.435000000    -3.519000000    -0.629000000
H    -7.070000000    -2.347000000     0.257000000
O    -5.102000000     0.263000000    -0.127000000
H    -5.097000000     0.152000000     0.824000000
H    -4.785000000    -0.574000000    -0.467000000
O     1.035000000     2.286000000     2.912000000
H     0.642000000     2.621000000     2.106000000
H     0.372000000     2.442000000     3.584000000
O     4.740000000    -4.337000000     1.238000000
H     4.331000000    -3.741000000     1.866000000
H     5.539000000    -4.633000000     1.674000000
O     2.954000000     5.991000000     3.269000000
H     2.522000000     6.451000000     2.549000000
H     3.028000000     5.086000000     2.966000000
O    -5.501000000    -0.521000000     2.868000000
H    -6.348000000    -0.098000000     3.008000000
H    -4.893000000    -0.027000000     3.419000000
O     0.544000000    -0.476000000    -3.093000000
H     1.500000000    -0.500000000    -3.067000000
H     0.276000000    -0.584000000    -2.181000000
O     1.110000000     0.396000000     6.290000000
H     1.496000000     0.486000000     5.419000000
H     1.347000000     1.206000000     6.742000000
O     1.443000000    -4.454000000     3.523000000
H     0.932000000    -4.726000000     2.760000000
H     2.289000000    -4.887000000     3.410000000
O     2.572000000     0.271000000     4.033000000
H     2.124000000     0.933000000     3.505000000
H     1.935000000    -0.438000000     4.119000000
O    -1.738000000     3.810000000    -2.564000000
H    -1.815000000     4.210000000    -1.698000000
H    -2.473000000     3.198000000    -2.611000000
O     4.969000000    -0.446000000     1.304000000
H     5.308000000    -0.788000000     0.476000000
H     5.751000000    -0.222000000     1.808000000
O     0.955000000    -1.834000000     4.280000000
H     1.401000000    -2.674000000     4.167000000
H     0.030000000    -2.034000000     4.138000000
O    -3.810000000    -1.325000000    -2.884000000
H    -3.380000000    -1.570000000    -2.065000000
H    -4.566000000    -1.911000000    -2.942000000
O    -5.321000000    -2.850000000     1.121000000
H    -5.232000000    -2.312000000     1.907000000
H    -4.549000000    -2.637000000     0.596000000
O    -5.974000000    -3.269000000    -4.039000000
H    -5.325000000    -3.772000000    -4.532000000
H    -6.066000000    -3.743000000    -3.212000000
O    -0.380000000    -5.505000000     5.687000000
H     0.017000000    -5.054000000     4.942000000
H    -0.379000000    -4.855000000     6.389000000
O    -6.303000000    -4.999000000    -1.037000000
H    -6.332000000    -5.255000000    -0.115000000
H    -5.475000000    -5.356000000    -1.358000000
O     4.894000000     1.701000000    -2.889000000
H     4.622000000     2.496000000    -2.431000000
H     5.851000000     1.726000000    -2.863000000
O     3.330000000    -3.239000000    -1.188000000
H     3.870000000    -3.055000000    -0.419000000
H     3.465000000    -2.484000000    -1.761000000
O     3.518000000    -2.217000000     2.734000000
H     3.937000000    -1.528000000     2.219000000
H     2.776000000    -1.784000000     3.157000000
O    -0.123000000     5.617000000    -3.963000000
H    -0.061000000     4.911000000    -4.606000000
H    -0.459000000     5.193000000    -3.174000000
O    -2.000000000    -1.335000000     3.761000000
H    -2.191000000    -1.901000000     3.013000000
H    -2.191000000    -0.451000000     3.447000000
O     5.453000000     1.756000000    -5.484000000
H     6.021000000     2.409000000    -5.073000000
H     5.196000000     1.177000000    -4.766000000
