144
-2822.10184
O    -7.295000000    -4.756000000     0.464000000
H    -7.392000000    -3.905000000     0.893000000
H    -8.060000000    -4.825000000    -0.107000000
O    -4.532000000     3.253000000    -0.593000000
H    -4.653000000     2.491000000    -0.026000000
H    -4.542000000     4.001000000     0.004000000
O    -6.671000000    -3.939000000     3.975000000
H    -6.621000000    -3.147000000     4.510000000
H    -5.809000000    -4.007000000     3.565000000
O     1.368000000     2.114000000    -5.503000000
H     1.964000000     1.367000000    -5.567000000
H     0.687000000     1.825000000    -4.897000000
O    -4.906000000     1.095000000     3.533000000
H    -4.251000000     1.375000000     4.172000000
H    -4.704000000     1.599000000     2.745000000
O    -5.037000000    -6.349000000     0.855000000
H    -5.023000000    -6.470000000     1.804000000
H    -5.589000000    -5.579000000     0.719000000
O    -0.717000000    -3.416000000    -2.386000000
H    -1.013000000    -3.425000000    -1.476000000
H    -0.644000000    -2.487000000    -2.606000000
O     2.552000000    -5.805000000     2.880000000
H     2.699000000    -4.865000000     2.782000000
H     3.390000000    -6.205000000     2.646000000
O    -3.844000000    -4.372000000    -1.715000000
H    -3.114000000    -4.005000000    -1.216000000
H    -4.207000000    -5.050000000    -1.145000000
O     1.422000000     6.022000000     2.527000000
H     2.240000000     6.438000000     2.255000000
H     1.543000000     5.842000000     3.459000000
O    -1.626000000    -4.992000000    -4.248000000
H    -1.135000000    -4.439000000    -3.640000000
H    -1.273000000    -5.871000000    -4.111000000
O     4.361000000     3.746000000    -3.511000000
H     5.027000000     4.362000000    -3.815000000
H     3.889000000     4.222000000    -2.827000000
O     0.395000000    -0.913000000    -3.659000000
H     1.063000000    -1.498000000    -4.018000000
H     0.874000000    -0.339000000    -3.062000000
O     4.831000000     2.628000000     2.539000000
H     3.919000000     2.432000000     2.756000000
H     5.194000000     1.792000000     2.248000000
O     1.330000000     4.922000000    -4.760000000
H     2.176000000     4.932000000    -4.312000000
H     1.280000000     4.053000000    -5.158000000
O    -2.504000000     3.712000000    -2.491000000
H    -3.232000000     3.498000000    -1.908000000
H    -2.627000000     4.638000000    -2.698000000
O    -3.440000000     2.106000000    -4.932000000
H    -2.560000000     2.293000000    -4.603000000
H    -3.947000000     1.888000000    -4.150000000
O     2.857000000     5.630000000    -1.228000000
H     2.547000000     6.487000000    -1.521000000
H     2.145000000     5.290000000    -0.687000000
O    -0.868000000    -5.302000000     0.706000000
H    -0.236000000    -5.312000000    -0.013000000
H    -1.517000000    -4.649000000     0.446000000
O    -4.319000000    -2.137000000    -3.298000000
H    -4.189000000    -2.940000000    -2.794000000
H    -3.602000000    -2.132000000    -3.932000000
O    -2.230000000     4.462000000     0.550000000
H    -2.660000000     4.032000000    -0.189000000
H    -2.846000000     5.141000000     0.824000000
O     2.337000000     3.201000000     3.709000000
H     1.869000000     3.778000000     4.313000000
H     1.808000000     2.404000000     3.681000000
O    -1.493000000     3.700000000     3.260000000
H    -1.501000000     4.397000000     3.916000000
H    -1.824000000     4.117000000     2.464000000
O    -2.115000000    -7.769000000     1.049000000
H    -1.949000000    -6.848000000     0.848000000
H    -3.069000000    -7.850000000     1.030000000
O     3.985000000    -2.445000000    -3.494000000
H     3.251000000    -2.908000000    -3.898000000
H     3.802000000    -1.519000000    -3.656000000
O     0.919000000    -5.894000000    -1.273000000
H     1.681000000    -5.328000000    -1.394000000
H     0.650000000    -6.128000000    -2.162000000
O    -7.174000000    -0.150000000    -1.807000000
H    -6.387000000     0.389000000    -1.725000000
H    -6.924000000    -0.847000000    -2.414000000
O    -4.976000000     0.554000000     0.163000000
H    -5.877000000     0.321000000     0.388000000
H    -4.462000000    -0.218000000     0.401000000
O    -0.432000000     1.002000000     3.164000000
H    -0.560000000     0.910000000     2.220000000
H    -0.758000000     1.879000000     3.365000000
O     4.184000000    -4.015000000     0.758000000
H     3.360000000    -4.020000000     1.244000000
H     4.530000000    -3.131000000     0.881000000
O     5.165000000    -0.868000000    -0.642000000
H     5.731000000    -1.272000000    -1.299000000
H     5.066000000     0.038000000    -0.935000000
O     4.713000000     5.498000000     1.556000000
H     4.272000000     5.158000000     0.777000000
H     4.642000000     4.792000000     2.198000000
O     3.659000000     0.356000000    -4.333000000
H     3.719000000     1.222000000    -3.930000000
H     4.240000000     0.405000000    -5.092000000
O    -0.097000000    -5.577000000     3.293000000
H    -0.599000000    -5.406000000     2.496000000
H     0.794000000    -5.741000000     2.985000000
O     0.865000000    -0.289000000     5.160000000
H     0.520000000     0.180000000     4.401000000
H     0.715000000    -1.213000000     4.960000000
O    -0.503000000     2.003000000    -3.557000000
H    -0.617000000     1.319000000    -2.897000000
H    -0.978000000     2.756000000    -3.206000000
O     4.285000000    -1.342000000     2.008000000
H     4.512000000    -0.899000000     1.190000000
H     5.093000000    -1.328000000     2.520000000
O    -0.003000000    -2.446000000     3.715000000
H    -0.245000000    -3.298000000     4.076000000
H    -0.832000000    -2.063000000     3.427000000
O    -7.475000000    -2.159000000     1.721000000
H    -7.955000000    -1.426000000     2.107000000
H    -7.049000000    -2.585000000     2.465000000
O    -4.677000000     0.755000000    -2.511000000
H    -4.465000000     0.695000000    -1.579000000
H    -4.535000000    -0.130000000    -2.846000000
O    -4.348000000    -3.786000000     2.002000000
H    -3.624000000    -4.258000000     1.590000000
H    -4.392000000    -2.955000000     1.528000000
O     0.558000000     4.710000000     0.221000000
H    -0.389000000     4.575000000     0.267000000
H     0.781000000     5.126000000     1.053000000
O    -2.598000000    -3.535000000     5.405000000
H    -2.374000000    -2.990000000     4.650000000
H    -2.873000000    -2.912000000     6.077000000
O     5.534000000     1.807000000    -2.084000000
H     5.031000000     2.432000000    -2.607000000
H     6.446000000     1.978000000    -2.318000000
O     3.529000000    -4.614000000    -1.697000000
H     3.790000000    -4.073000000    -0.952000000
H     3.884000000    -4.158000000    -2.460000000
O     2.189000000    -2.985000000     2.400000000
H     2.930000000    -2.395000000     2.539000000
H     1.459000000    -2.562000000     2.851000000
O    -2.430000000    -1.561000000     3.383000000
H    -2.973000000    -1.804000000     2.633000000
H    -2.177000000    -0.654000000     3.211000000
O    -7.361000000     0.348000000     3.083000000
H    -7.699000000     0.745000000     3.886000000
H    -6.457000000     0.114000000     3.293000000
