144
-2824.86026
O    -5.214000000    -5.171000000     4.256000000
H    -5.236000000    -4.215000000     4.214000000
H    -4.909000000    -5.442000000     3.390000000
O    -1.057000000    -1.989000000     4.207000000
H    -1.594000000    -2.235000000     4.960000000
H    -1.556000000    -2.291000000     3.448000000
O    -5.615000000     2.420000000     0.800000000
H    -5.467000000     1.510000000     0.542000000
H    -4.945000000     2.914000000     0.327000000
O    -3.016000000     2.437000000    -3.896000000
H    -2.078000000     2.484000000    -4.082000000
H    -3.313000000     3.346000000    -3.931000000
O    -1.088000000     1.605000000     2.680000000
H    -1.276000000     0.891000000     2.071000000
H    -0.910000000     2.359000000     2.118000000
O    -5.133000000    -5.336000000    -2.141000000
H    -4.193000000    -5.490000000    -2.043000000
H    -5.395000000    -4.923000000    -1.318000000
O     1.888000000    -4.153000000     5.924000000
H     1.694000000    -3.745000000     5.080000000
H     1.146000000    -3.917000000     6.480000000
O    -5.252000000    -3.881000000     0.264000000
H    -4.508000000    -3.315000000     0.060000000
H    -5.067000000    -4.214000000     1.142000000
O     0.779000000     3.862000000    -5.496000000
H     0.712000000     3.630000000    -6.422000000
H     0.486000000     3.078000000    -5.031000000
O     5.140000000     0.566000000     3.382000000
H     5.684000000     0.363000000     4.143000000
H     4.318000000     0.887000000     3.754000000
O     5.040000000     0.925000000    -2.957000000
H     5.519000000     0.120000000    -3.155000000
H     5.135000000     1.033000000    -2.011000000
O     0.494000000    -3.904000000    -3.644000000
H     1.130000000    -3.788000000    -2.938000000
H     0.773000000    -4.706000000    -4.087000000
O    -2.320000000    -5.399000000    -2.219000000
H    -1.412000000    -5.306000000    -2.506000000
H    -2.259000000    -5.560000000    -1.278000000
O     2.359000000    -3.633000000    -1.751000000
H     2.192000000    -4.264000000    -1.051000000
H     3.310000000    -3.645000000    -1.863000000
O    -7.306000000     0.376000000    -2.260000000
H    -7.588000000     1.287000000    -2.342000000
H    -6.369000000     0.396000000    -2.455000000
O    -3.225000000    -2.881000000     5.626000000
H    -4.061000000    -2.959000000     6.085000000
H    -3.461000000    -2.582000000     4.748000000
O     6.032000000     3.721000000     2.471000000
H     5.961000000     3.936000000     3.401000000
H     5.518000000     2.920000000     2.370000000
O    -3.755000000     3.273000000    -0.900000000
H    -3.860000000     2.717000000    -1.672000000
H    -2.824000000     3.494000000    -0.888000000
O     4.328000000     1.606000000    -5.836000000
H     5.246000000     1.381000000    -5.988000000
H     4.232000000     1.592000000    -4.883000000
O    -4.087000000    -6.290000000     1.843000000
H    -3.766000000    -6.994000000     2.407000000
H    -3.313000000    -5.999000000     1.361000000
O    -1.852000000    -5.373000000     0.609000000
H    -1.044000000    -5.597000000     1.070000000
H    -2.023000000    -4.463000000     0.853000000
O     0.318000000     0.278000000     4.489000000
H    -0.114000000    -0.565000000     4.353000000
H    -0.105000000     0.867000000     3.864000000
O     2.255000000     7.335000000    -0.384000000
H     2.489000000     6.701000000     0.294000000
H     2.419000000     8.188000000     0.018000000
O    -6.394000000    -3.760000000    -3.877000000
H    -5.953000000    -4.396000000    -3.314000000
H    -7.286000000    -3.715000000    -3.533000000
O    -0.390000000     6.936000000     0.135000000
H     0.465000000     7.174000000    -0.223000000
H    -0.414000000     7.352000000     0.996000000
O    -1.512000000    -2.341000000    -4.741000000
H    -2.096000000    -2.369000000    -3.983000000
H    -0.862000000    -3.021000000    -4.567000000
O     1.978000000     6.659000000     3.729000000
H     2.252000000     6.134000000     2.977000000
H     2.588000000     7.397000000     3.741000000
O    -0.223000000     4.542000000     2.761000000
H    -0.023000000     4.998000000     3.579000000
H    -1.145000000     4.299000000     2.842000000
O     1.109000000    -0.630000000    -3.703000000
H     1.678000000    -1.121000000    -3.111000000
H     0.259000000    -1.063000000    -3.632000000
O     3.845000000    -2.030000000     1.945000000
H     4.472000000    -1.332000000     1.758000000
H     4.129000000    -2.761000000     1.396000000
O    -5.409000000    -0.196000000     0.002000000
H    -4.656000000    -0.499000000     0.511000000
H    -5.234000000    -0.501000000    -0.888000000
O     1.974000000     5.269000000     1.463000000
H     1.615000000     4.875000000     0.667000000
H     1.350000000     5.034000000     2.149000000
O    -4.748000000     0.783000000    -3.168000000
H    -4.207000000     1.403000000    -3.657000000
H    -4.424000000    -0.078000000    -3.433000000
O    -4.099000000     0.563000000     2.755000000
H    -4.659000000     1.289000000     3.031000000
H    -3.296000000     0.672000000     3.265000000
O    -0.166000000     1.508000000    -4.654000000
H    -0.528000000     0.962000000    -5.351000000
H     0.506000000     0.961000000    -4.246000000
O     0.901000000    -5.271000000     2.303000000
H     0.734000000    -5.790000000     3.090000000
H     1.074000000    -4.389000000     2.630000000
O     3.423000000    -0.256000000     6.643000000
H     3.991000000    -0.977000000     6.374000000
H     3.118000000     0.129000000     5.822000000
O    -1.533000000     4.886000000    -1.019000000
H    -1.188000000     5.640000000    -0.541000000
H    -0.881000000     4.714000000    -1.698000000
O     1.549000000    -2.811000000     3.488000000
H     2.203000000    -2.393000000     2.928000000
H     0.993000000    -2.091000000     3.786000000
O    -3.965000000    -2.091000000    -3.163000000
H    -3.627000000    -2.152000000    -2.270000000
H    -4.429000000    -2.917000000    -3.301000000
O    -4.230000000    -2.397000000     3.193000000
H    -4.777000000    -1.622000000     3.065000000
H    -3.545000000    -2.320000000     2.528000000
O     2.076000000    -6.296000000    -0.309000000
H     1.385000000    -6.791000000    -0.750000000
H     1.747000000    -6.168000000     0.581000000
O    -7.722000000    -2.533000000    -0.539000000
H    -7.708000000    -1.600000000    -0.753000000
H    -6.805000000    -2.755000000    -0.377000000
O     6.550000000     2.264000000    -0.556000000
H     6.805000000     2.160000000     0.361000000
H     7.070000000     3.005000000    -0.866000000
O     6.017000000    -0.848000000     0.047000000
H     6.373000000    -1.106000000    -0.804000000
H     5.985000000     0.108000000     0.012000000
O     0.032000000     5.223000000    -3.216000000
H     0.634000000     5.958000000    -3.098000000
H     0.415000000     4.711000000    -3.928000000
O     2.758000000     1.287000000     4.624000000
H     1.948000000     0.834000000     4.388000000
H     2.485000000     2.187000000     4.803000000
O     4.589000000     4.559000000    -3.562000000
H     5.459000000     4.491000000    -3.168000000
H     4.025000000     4.042000000    -2.987000000
