144
-2781.80392
O    -1.641000000    -1.180000000     6.376000000
H    -1.644000000    -1.646000000     7.213000000
H    -2.249000000    -1.673000000     5.826000000
O    -5.436000000    -1.013000000    -5.004000000
H    -6.041000000    -0.306000000    -5.228000000
H    -5.998000000    -1.715000000    -4.677000000
O     6.259000000    -1.155000000     4.473000000
H     5.327000000    -1.319000000     4.618000000
H     6.569000000    -0.787000000     5.300000000
O    -0.008000000    -6.245000000     4.443000000
H     0.477000000    -5.427000000     4.336000000
H    -0.095000000    -6.350000000     5.390000000
O     0.557000000     5.364000000     1.387000000
H     1.228000000     4.924000000     0.864000000
H    -0.251000000     4.892000000     1.185000000
O     6.344000000    -1.663000000     1.844000000
H     5.594000000    -1.254000000     1.412000000
H     6.328000000    -1.311000000     2.735000000
O     2.261000000    -0.987000000    -1.879000000
H     1.538000000    -0.696000000    -1.323000000
H     2.313000000    -1.931000000    -1.730000000
O    -2.867000000    -2.389000000    -5.517000000
H    -3.506000000    -1.847000000    -5.054000000
H    -2.261000000    -2.680000000    -4.835000000
O    -3.153000000    -0.199000000     3.475000000
H    -2.427000000     0.373000000     3.224000000
H    -2.768000000    -1.074000000     3.509000000
O    -1.845000000    -4.310000000    -0.718000000
H    -2.429000000    -4.962000000    -1.106000000
H    -1.917000000    -4.454000000     0.225000000
O    -1.980000000     6.190000000    -3.357000000
H    -1.249000000     5.978000000    -2.777000000
H    -2.459000000     5.367000000    -3.449000000
O     3.546000000    -2.005000000     7.647000000
H     3.453000000    -1.997000000     6.695000000
H     2.657000000    -1.872000000     7.976000000
O    -1.572000000     3.994000000    -6.564000000
H    -1.246000000     4.119000000    -5.673000000
H    -2.522000000     3.927000000    -6.465000000
O     0.808000000    -4.352000000     7.547000000
H     1.088000000    -3.959000000     6.720000000
H     0.601000000    -3.606000000     8.109000000
O     2.191000000     4.078000000    -0.532000000
H     2.287000000     3.248000000    -0.999000000
H     3.035000000     4.210000000    -0.101000000
O     4.007000000     3.930000000     3.179000000
H     3.947000000     3.997000000     2.226000000
H     3.593000000     3.093000000     3.387000000
O     3.615000000    -1.748000000     4.729000000
H     3.920000000    -2.418000000     4.117000000
H     2.884000000    -1.327000000     4.277000000
O    -4.883000000    -2.271000000    -0.007000000
H    -4.851000000    -2.870000000     0.738000000
H    -4.013000000    -1.871000000    -0.032000000
O     1.585000000     6.702000000    -3.788000000
H     1.212000000     5.831000000    -3.923000000
H     1.487000000     6.861000000    -2.849000000
O     3.341000000    -2.881000000     0.881000000
H     3.079000000    -3.131000000    -0.005000000
H     2.598000000    -3.132000000     1.430000000
O     2.402000000     2.799000000    -4.844000000
H     2.973000000     2.081000000    -5.116000000
H     2.497000000     2.833000000    -3.892000000
O     1.928000000    -1.912000000    -5.093000000
H     2.702000000    -2.094000000    -4.559000000
H     1.674000000    -1.022000000    -4.850000000
O     2.332000000    -3.580000000    -1.507000000
H     1.662000000    -4.262000000    -1.537000000
H     2.979000000    -3.850000000    -2.159000000
O     4.328000000     1.532000000     5.893000000
H     4.810000000     0.783000000     6.242000000
H     3.694000000     1.748000000     6.577000000
O    -4.149000000     0.749000000    -1.761000000
H    -5.049000000     0.617000000    -1.463000000
H    -3.692000000     1.099000000    -0.997000000
O    -3.131000000     0.571000000    -4.710000000
H    -3.735000000     0.847000000    -5.399000000
H    -3.685000000     0.124000000    -4.070000000
O    -2.008000000     4.088000000     0.218000000
H    -2.785000000     4.468000000     0.627000000
H    -2.278000000     3.205000000    -0.037000000
O    -2.004000000    -3.408000000    -3.263000000
H    -1.539000000    -4.231000000    -3.413000000
H    -2.250000000    -3.437000000    -2.338000000
O     1.402000000    -3.874000000     4.962000000
H     2.357000000    -3.924000000     4.905000000
H     1.147000000    -3.312000000     4.230000000
O     1.100000000     0.156000000    -7.638000000
H     1.816000000    -0.478000000    -7.606000000
H     0.548000000    -0.069000000    -6.889000000
O     0.476000000    -5.473000000    -1.401000000
H    -0.221000000    -4.873000000    -1.134000000
H     0.313000000    -6.269000000    -0.896000000
O     0.150000000     0.696000000     5.057000000
H     0.731000000     0.129000000     4.549000000
H    -0.038000000     0.196000000     5.851000000
O    -2.634000000    -0.193000000    -7.695000000
H    -2.068000000    -0.390000000    -6.949000000
H    -3.192000000     0.522000000    -7.389000000
O     4.411000000    -4.150000000     3.095000000
H     4.212000000    -3.620000000     2.322000000
H     4.963000000    -4.858000000     2.763000000
O     4.724000000     4.104000000     0.108000000
H     5.574000000     4.315000000     0.496000000
H     4.802000000     4.380000000    -0.805000000
O     2.770000000     1.597000000     3.798000000
H     2.271000000     0.851000000     3.465000000
H     3.321000000     1.227000000     4.488000000
O    -1.586000000     1.938000000     2.670000000
H    -1.115000000     2.414000000     3.354000000
H    -1.055000000     2.064000000     1.883000000
O     2.967000000     1.721000000    -2.210000000
H     2.512000000     0.880000000    -2.256000000
H     3.896000000     1.490000000    -2.203000000
O    -0.157000000     4.867000000    -1.653000000
H    -0.670000000     4.392000000    -0.999000000
H     0.750000000     4.773000000    -1.362000000
O     1.923000000     1.946000000     7.899000000
H     1.366000000     1.553000000     7.227000000
H     1.861000000     1.347000000     8.643000000
O    -1.684000000    -5.475000000     1.790000000
H    -2.347000000    -6.152000000     1.927000000
H    -0.973000000    -5.712000000     2.386000000
O    -2.155000000    -2.729000000     3.002000000
H    -1.349000000    -3.141000000     2.690000000
H    -2.844000000    -3.359000000     2.793000000
O    -0.033000000     3.347000000     4.630000000
H     0.520000000     3.999000000     5.060000000
H     0.421000000     2.517000000     4.770000000
O    -3.504000000     3.824000000    -3.784000000
H    -3.142000000     2.999000000    -3.459000000
H    -4.425000000     3.630000000    -3.957000000
O    -5.116000000     4.911000000    -0.025000000
H    -5.999000000     5.204000000    -0.249000000
H    -5.204000000     3.968000000     0.113000000
O     5.200000000     0.721000000     0.344000000
H     4.857000000     1.475000000    -0.136000000
H     5.898000000     1.082000000     0.891000000
O    -3.600000000     1.677000000     0.607000000
H    -3.507000000     0.995000000     1.272000000
H    -4.465000000     2.053000000     0.768000000
O    -0.478000000    -0.091000000    -5.259000000
H    -0.938000000    -0.462000000    -4.507000000
H    -0.834000000     0.793000000    -5.346000000
