144
-2799.90530
O     2.472000000    -1.909000000     1.911000000
H     1.783000000    -1.920000000     2.575000000
H     2.246000000    -1.172000000     1.344000000
O     4.067000000     3.564000000    -3.238000000
H     3.224000000     3.412000000    -2.810000000
H     4.342000000     2.698000000    -3.539000000
O     2.129000000    -3.129000000    -1.599000000
H     1.853000000    -3.539000000    -0.779000000
H     1.349000000    -3.150000000    -2.152000000
O    -0.295000000    -5.401000000    -1.644000000
H    -0.900000000    -5.991000000    -2.092000000
H    -0.508000000    -5.499000000    -0.716000000
O    -4.095000000     2.137000000     1.865000000
H    -3.829000000     1.686000000     2.666000000
H    -4.788000000     2.735000000     2.145000000
O    -4.306000000    -5.205000000     0.084000000
H    -4.387000000    -6.003000000     0.607000000
H    -4.236000000    -4.501000000     0.729000000
O    -2.672000000     6.063000000    -0.598000000
H    -1.991000000     6.306000000    -1.225000000
H    -2.435000000     5.179000000    -0.317000000
O    -1.225000000     4.223000000     3.511000000
H    -0.422000000     3.766000000     3.761000000
H    -1.447000000     3.864000000     2.652000000
O     3.247000000     5.142000000    -0.405000000
H     2.923000000     4.417000000    -0.941000000
H     2.460000000     5.519000000    -0.012000000
O    -0.820000000    -4.267000000     3.851000000
H    -0.996000000    -5.208000000     3.843000000
H    -1.687000000    -3.861000000     3.841000000
O    -4.033000000    -2.612000000    -1.579000000
H    -4.150000000    -3.525000000    -1.318000000
H    -4.378000000    -2.106000000    -0.843000000
O     3.623000000    -0.874000000    -0.856000000
H     3.373000000    -0.319000000    -1.594000000
H     3.178000000    -1.706000000    -1.020000000
O    -5.594000000    -0.900000000     5.344000000
H    -4.639000000    -0.937000000     5.284000000
H    -5.815000000    -1.529000000     6.031000000
O    -2.236000000    -0.948000000     6.246000000
H    -1.821000000    -1.315000000     7.027000000
H    -1.586000000    -0.340000000     5.893000000
O    -1.311000000     3.000000000    -5.557000000
H    -1.037000000     3.215000000    -6.449000000
H    -0.517000000     3.101000000    -5.032000000
O    -1.331000000    -5.124000000     1.099000000
H    -2.035000000    -5.392000000     1.690000000
H    -0.934000000    -4.366000000     1.527000000
O    -3.934000000    -5.355000000    -2.947000000
H    -3.213000000    -5.659000000    -3.498000000
H    -3.621000000    -5.483000000    -2.051000000
O    -0.705000000    -3.226000000    -6.045000000
H    -0.652000000    -3.274000000    -5.091000000
H    -1.155000000    -2.399000000    -6.219000000
O     2.439000000    -2.975000000    -4.601000000
H     2.473000000    -3.920000000    -4.748000000
H     1.609000000    -2.833000000    -4.145000000
O     3.915000000    -0.717000000    -4.229000000
H     3.269000000    -0.083000000    -3.920000000
H     3.401000000    -1.492000000    -4.457000000
O     1.931000000    -5.012000000     4.445000000
H     2.065000000    -5.478000000     3.620000000
H     1.057000000    -4.630000000     4.365000000
O     5.531000000     3.775000000     0.098000000
H     6.051000000     3.597000000    -0.686000000
H     4.899000000     4.438000000    -0.179000000
O    -2.348000000    -1.383000000    -3.276000000
H    -2.045000000    -0.620000000    -2.784000000
H    -3.077000000    -1.727000000    -2.760000000
O    -4.604000000    -3.381000000     2.142000000
H    -5.557000000    -3.399000000     2.234000000
H    -4.291000000    -3.009000000     2.966000000
O     3.550000000     2.559000000     2.406000000
H     3.477000000     3.185000000     1.685000000
H     3.850000000     1.750000000     1.992000000
O     0.195000000     0.218000000     6.110000000
H     1.147000000     0.323000000     6.111000000
H    -0.083000000     0.546000000     6.965000000
O     0.389000000     0.537000000    -7.330000000
H     0.743000000     1.243000000    -6.788000000
H     1.155000000     0.161000000    -7.764000000
O    -3.254000000     0.929000000    -0.950000000
H    -2.483000000     0.791000000    -0.400000000
H    -3.958000000     1.122000000    -0.331000000
O    -3.222000000     2.405000000     4.435000000
H    -2.342000000     2.782000000     4.414000000
H    -3.465000000     2.416000000     5.360000000
O     2.116000000     5.555000000    -4.948000000
H     1.557000000     5.791000000    -5.688000000
H     2.672000000     6.322000000    -4.813000000
O    -2.904000000    -6.169000000     3.017000000
H    -2.652000000    -6.732000000     3.748000000
H    -3.860000000    -6.143000000     3.052000000
O     2.372000000    -5.454000000     1.892000000
H     3.049000000    -5.308000000     1.232000000
H     1.558000000    -5.190000000     1.462000000
O     1.734000000     1.988000000    -5.265000000
H     1.752000000     1.612000000    -4.384000000
H     2.239000000     2.797000000    -5.190000000
O     1.012000000    -2.175000000     4.286000000
H     0.751000000    -1.935000000     5.175000000
H     0.309000000    -2.746000000     3.976000000
O     2.300000000     6.217000000     3.326000000
H     2.713000000     7.079000000     3.365000000
H     1.883000000     6.189000000     2.465000000
O     1.007000000     2.271000000     4.153000000
H     1.627000000     2.280000000     3.424000000
H     1.223000000     1.478000000     4.642000000
O     6.141000000    -2.121000000    -4.064000000
H     5.965000000    -2.726000000    -4.784000000
H     5.289000000    -1.731000000    -3.866000000
O    -1.020000000     6.078000000    -4.724000000
H    -0.424000000     6.128000000    -5.471000000
H    -0.746000000     5.292000000    -4.251000000
O    -0.198000000    -3.144000000    -3.143000000
H    -0.380000000    -3.923000000    -2.617000000
H    -0.855000000    -2.507000000    -2.863000000
O    -5.917000000    -1.761000000     0.512000000
H    -6.746000000    -1.558000000     0.944000000
H    -5.391000000    -2.186000000     1.190000000
O    -3.275000000    -2.882000000     4.660000000
H    -2.956000000    -2.170000000     5.214000000
H    -3.614000000    -3.532000000     5.276000000
O     4.911000000     0.226000000     1.444000000
H     5.591000000     0.527000000     0.840000000
H     4.394000000    -0.396000000     0.932000000
O     0.317000000     4.111000000    -3.414000000
H     0.982000000     4.624000000    -3.873000000
H     0.796000000     3.672000000    -2.711000000
O     4.460000000     6.087000000    -2.672000000
H     4.309000000     6.232000000    -1.738000000
H     4.275000000     5.156000000    -2.802000000
O     5.637000000     1.099000000    -5.426000000
H     5.204000000     0.345000000    -5.027000000
H     5.374000000     1.067000000    -6.346000000
O    -1.902000000     3.379000000     0.719000000
H    -2.725000000     3.098000000     1.121000000
H    -1.598000000     2.611000000     0.236000000
O     0.662000000     5.815000000     0.287000000
H     0.052000000     6.229000000    -0.324000000
H     0.137000000     5.153000000     0.737000000
O     4.031000000     4.413000000     4.221000000
H     3.290000000     4.964000000     3.971000000
H     3.970000000     3.652000000     3.643000000
