144
-2810.34813
O     4.210000000    -1.619000000     3.589000000
H     3.335000000    -1.396000000     3.907000000
H     4.664000000    -0.778000000     3.531000000
O    -4.152000000    -1.823000000     2.959000000
H    -4.900000000    -1.425000000     3.406000000
H    -3.387000000    -1.476000000     3.418000000
O     1.373000000     4.533000000     1.337000000
H     1.308000000     3.852000000     2.006000000
H     1.073000000     4.108000000     0.533000000
O     1.453000000    -0.748000000    -7.580000000
H     1.844000000    -1.223000000    -8.314000000
H     1.927000000     0.083000000    -7.553000000
O     1.403000000     3.565000000     5.209000000
H     0.756000000     3.039000000     5.679000000
H     1.413000000     3.198000000     4.325000000
O     0.771000000     4.163000000    -1.279000000
H     1.437000000     3.628000000    -1.710000000
H     0.880000000     5.034000000    -1.661000000
O     4.080000000    -3.652000000    -4.004000000
H     3.740000000    -3.804000000    -3.122000000
H     3.404000000    -3.130000000    -4.435000000
O     3.521000000     6.061000000     0.559000000
H     2.723000000     5.639000000     0.878000000
H     3.383000000     6.153000000    -0.384000000
O     1.727000000    -1.363000000     4.656000000
H     1.389000000    -0.478000000     4.522000000
H     1.436000000    -1.850000000     3.885000000
O     5.509000000     0.192000000    -3.379000000
H     4.557000000     0.093000000    -3.415000000
H     5.840000000    -0.459000000    -3.998000000
O    -3.943000000     0.733000000    -3.282000000
H    -3.274000000     0.836000000    -2.606000000
H    -3.897000000    -0.192000000    -3.525000000
O    -1.819000000     2.806000000     4.921000000
H    -2.149000000     3.489000000     4.337000000
H    -1.186000000     2.323000000     4.390000000
O     2.420000000     2.682000000    -2.942000000
H     3.067000000     3.297000000    -3.287000000
H     1.852000000     2.488000000    -3.688000000
O     4.699000000     0.732000000    -0.389000000
H     4.968000000     0.635000000    -1.302000000
H     3.863000000     0.270000000    -0.335000000
O    -3.740000000    -5.902000000    -3.074000000
H    -3.110000000    -5.184000000    -3.132000000
H    -3.442000000    -6.536000000    -3.726000000
O     0.683000000    -1.347000000     7.178000000
H     0.073000000    -0.619000000     7.297000000
H     0.975000000    -1.268000000     6.270000000
O    -1.300000000     3.851000000     7.449000000
H    -2.077000000     4.064000000     7.966000000
H    -1.638000000     3.664000000     6.574000000
O     5.701000000     0.665000000     3.271000000
H     6.167000000     0.963000000     4.052000000
H     5.407000000     1.471000000     2.846000000
O    -5.431000000     3.114000000    -2.659000000
H    -5.520000000     2.837000000    -1.748000000
H    -4.823000000     2.481000000    -3.043000000
O     4.147000000     2.716000000     2.695000000
H     4.180000000     3.277000000     1.920000000
H     3.291000000     2.290000000     2.646000000
O    -3.154000000     2.887000000     0.242000000
H    -2.419000000     2.732000000    -0.351000000
H    -3.716000000     2.120000000     0.132000000
O    -0.715000000    -3.997000000     0.441000000
H    -1.639000000    -3.759000000     0.526000000
H    -0.707000000    -4.952000000     0.506000000
O    -4.983000000    -1.526000000    -6.553000000
H    -4.710000000    -1.654000000    -5.645000000
H    -5.523000000    -2.291000000    -6.751000000
O    -0.942000000     0.864000000     7.473000000
H    -0.750000000     1.784000000     7.653000000
H    -1.298000000     0.528000000     8.295000000
O    -1.939000000    -3.814000000    -3.708000000
H    -1.502000000    -3.587000000    -4.529000000
H    -1.347000000    -4.436000000    -3.286000000
O     4.338000000     3.520000000    -0.012000000
H     4.279000000     3.785000000    -0.930000000
H     4.383000000     2.564000000    -0.041000000
O    -0.199000000    -5.625000000    -2.866000000
H     0.324000000    -6.292000000    -3.311000000
H    -0.340000000    -5.977000000    -1.987000000
O     0.679000000    -2.769000000     2.669000000
H     0.711000000    -3.660000000     3.016000000
H     0.503000000    -2.882000000     1.735000000
O     3.350000000    -1.589000000    -1.433000000
H     2.837000000    -2.369000000    -1.644000000
H     3.192000000    -0.993000000    -2.165000000
O    -2.143000000    -0.368000000     4.543000000
H    -1.310000000     0.025000000     4.281000000
H    -2.455000000     0.186000000     5.258000000
O     2.252000000    -3.953000000    -2.052000000
H     1.307000000    -4.095000000    -2.108000000
H     2.609000000    -4.810000000    -1.817000000
O     2.166000000     6.310000000     3.993000000
H     1.783000000     5.780000000     3.294000000
H     1.979000000     5.821000000     4.795000000
O    -1.355000000    -3.276000000    -6.160000000
H    -1.845000000    -2.764000000    -6.803000000
H    -0.640000000    -3.668000000    -6.661000000
O    -1.370000000     2.070000000    -2.118000000
H    -0.848000000     1.387000000    -1.697000000
H    -0.749000000     2.781000000    -2.278000000
O    -0.331000000     6.489000000     2.613000000
H    -1.210000000     6.552000000     2.239000000
H     0.139000000     5.901000000     2.021000000
O    -5.323000000    -1.910000000    -0.973000000
H    -5.517000000    -2.089000000    -1.893000000
H    -6.097000000    -2.218000000    -0.501000000
O     2.892000000    -0.362000000    -3.878000000
H     2.404000000     0.430000000    -4.104000000
H     2.536000000    -1.036000000    -4.456000000
O     1.206000000     1.715000000    -5.181000000
H     0.291000000     1.996000000    -5.182000000
H     1.480000000     1.789000000    -6.095000000
O     1.802000000    -5.778000000     0.258000000
H     2.002000000    -6.147000000     1.119000000
H     1.199000000    -5.058000000     0.441000000
O    -4.936000000    -5.572000000    -0.003000000
H    -4.442000000    -4.757000000     0.089000000
H    -5.823000000    -5.290000000    -0.225000000
O    -3.889000000    -1.839000000    -3.851000000
H    -3.264000000    -2.564000000    -3.849000000
H    -4.740000000    -2.257000000    -3.725000000
O     3.869000000     2.755000000     5.769000000
H     3.019000000     3.149000000     5.571000000
H     4.367000000     2.838000000     4.957000000
O     1.501000000    -2.206000000    -5.410000000
H     1.478000000    -1.660000000    -6.196000000
H     0.581000000    -2.381000000    -5.212000000
O    -1.657000000    -3.092000000     4.579000000
H    -1.764000000    -2.150000000     4.713000000
H    -1.107000000    -3.162000000     3.799000000
O    -3.619000000    -3.204000000     0.720000000
H    -3.841000000    -2.771000000     1.544000000
H    -3.975000000    -2.628000000     0.044000000
O    -4.166000000     1.743000000    -6.025000000
H    -3.758000000     0.960000000    -6.395000000
H    -4.024000000     1.665000000    -5.082000000
O    -3.141000000     4.280000000     2.818000000
H    -3.114000000     5.176000000     2.481000000
H    -2.825000000     3.742000000     2.093000000
O    -5.059000000     0.855000000     0.096000000
H    -5.569000000     1.071000000     0.877000000
H    -4.971000000    -0.098000000     0.123000000
