144
-2836.79279
O     0.534000000     4.291000000    -5.557000000
H     0.950000000     4.010000000    -6.371000000
H     0.925000000     3.736000000    -4.882000000
O    -2.107000000     6.152000000    -0.978000000
H    -2.317000000     5.219000000    -1.006000000
H    -2.795000000     6.568000000    -1.499000000
O    -2.071000000     3.118000000     7.965000000
H    -2.873000000     2.658000000     7.718000000
H    -1.762000000     3.515000000     7.150000000
O     2.046000000    -5.361000000    -1.451000000
H     2.384000000    -6.096000000    -1.963000000
H     1.205000000    -5.152000000    -1.859000000
O     3.729000000    -4.301000000     0.266000000
H     4.132000000    -3.733000000    -0.391000000
H     2.825000000    -4.405000000    -0.030000000
O     0.042000000     7.417000000     1.627000000
H    -0.201000000     7.866000000     0.817000000
H    -0.765000000     7.400000000     2.142000000
O    -1.391000000     3.803000000     5.274000000
H    -1.140000000     2.983000000     4.851000000
H    -0.581000000     4.312000000     5.312000000
O     3.429000000     5.185000000    -2.332000000
H     3.761000000     4.346000000    -2.651000000
H     2.937000000     5.544000000    -3.070000000
O    -3.373000000     3.612000000     2.407000000
H    -2.651000000     3.821000000     3.000000000
H    -3.084000000     2.822000000     1.949000000
O     3.834000000    -0.878000000     0.362000000
H     3.835000000    -1.343000000    -0.475000000
H     4.031000000     0.030000000     0.133000000
O    -1.798000000    -2.536000000     4.661000000
H    -1.428000000    -1.658000000     4.752000000
H    -1.079000000    -3.064000000     4.314000000
O     3.285000000     1.974000000     6.146000000
H     3.141000000     1.801000000     5.216000000
H     4.216000000     1.797000000     6.282000000
O     1.331000000     1.832000000    -4.314000000
H     1.491000000     0.984000000    -4.727000000
H     0.505000000     1.718000000    -3.844000000
O    -3.218000000     3.546000000    -1.841000000
H    -2.846000000     2.842000000    -2.372000000
H    -3.434000000     3.129000000    -1.007000000
O     2.356000000     1.979000000     3.403000000
H     2.231000000     1.089000000     3.073000000
H     1.569000000     2.450000000     3.127000000
O    -1.564000000    -5.139000000    -1.505000000
H    -1.349000000    -5.636000000    -2.294000000
H    -2.131000000    -4.432000000    -1.814000000
O     4.801000000     3.181000000     3.044000000
H     4.653000000     3.955000000     3.588000000
H     4.014000000     2.649000000     3.167000000
O    -2.111000000    -0.358000000    -3.756000000
H    -1.269000000    -0.192000000    -3.332000000
H    -2.756000000     0.038000000    -3.171000000
O    -4.572000000     2.068000000     0.362000000
H    -5.281000000     1.611000000    -0.093000000
H    -4.944000000     2.300000000     1.213000000
O    -0.984000000    -0.167000000     5.444000000
H    -0.919000000     0.343000000     4.636000000
H    -0.895000000     0.480000000     6.143000000
O     1.798000000    -0.860000000     2.274000000
H     2.493000000    -1.144000000     1.680000000
H     0.987000000    -1.099000000     1.826000000
O    -3.270000000    -4.612000000     1.962000000
H    -3.516000000    -5.434000000     2.386000000
H    -2.552000000    -4.851000000     1.375000000
O     4.090000000     1.099000000    -6.223000000
H     3.178000000     0.812000000    -6.182000000
H     4.120000000     1.692000000    -6.974000000
O     1.103000000     4.701000000     1.245000000
H     0.445000000     4.116000000     1.622000000
H     0.724000000     5.575000000     1.331000000
O     0.999000000    -2.857000000     3.942000000
H     1.451000000    -3.600000000     3.542000000
H     1.594000000    -2.118000000     3.813000000
O     3.691000000     4.079000000     0.262000000
H     2.840000000     4.024000000     0.697000000
H     3.493000000     4.423000000    -0.609000000
O     3.646000000    -5.392000000    -4.558000000
H     4.319000000    -5.504000000    -5.230000000
H     4.112000000    -5.009000000    -3.815000000
O     1.464000000     4.098000000     6.024000000
H     1.682000000     3.167000000     6.051000000
H     2.200000000     4.503000000     5.565000000
O    -3.085000000    -2.761000000    -2.580000000
H    -2.905000000    -1.944000000    -3.044000000
H    -3.476000000    -2.485000000    -1.751000000
O     3.346000000    -2.687000000    -4.839000000
H     4.040000000    -2.886000000    -5.468000000
H     3.061000000    -3.542000000    -4.518000000
O     4.043000000    -2.502000000    -1.835000000
H     4.958000000    -2.273000000    -1.995000000
H     3.586000000    -2.231000000    -2.632000000
O    -4.085000000    -2.392000000     0.152000000
H    -3.964000000    -3.274000000     0.503000000
H    -4.282000000    -1.854000000     0.920000000
O    -3.742000000     5.256000000     5.316000000
H    -2.868000000     4.872000000     5.390000000
H    -4.325000000     4.504000000     5.207000000
O    -1.509000000    -2.725000000    -5.221000000
H    -1.524000000    -1.883000000    -4.764000000
H    -0.721000000    -2.689000000    -5.763000000
O     1.702000000    -0.544000000    -5.317000000
H     2.242000000    -1.332000000    -5.373000000
H     0.802000000    -0.870000000    -5.328000000
O    -2.593000000    -5.406000000    -5.405000000
H    -3.069000000    -5.452000000    -6.234000000
H    -2.305000000    -4.496000000    -5.344000000
O    -4.918000000    -0.975000000     5.569000000
H    -5.233000000    -1.873000000     5.676000000
H    -4.735000000    -0.896000000     4.632000000
O    -6.817000000     0.214000000     2.794000000
H    -5.873000000     0.363000000     2.741000000
H    -6.997000000    -0.429000000     2.108000000
O     4.728000000     1.436000000    -0.707000000
H     4.951000000     1.758000000    -1.581000000
H     4.484000000     2.221000000    -0.217000000
O    -3.843000000    -2.144000000     3.126000000
H    -3.138000000    -2.326000000     3.747000000
H    -3.770000000    -2.838000000     2.471000000
O    -0.922000000    -6.452000000     0.891000000
H    -1.278000000    -7.314000000     0.675000000
H    -1.015000000    -5.946000000     0.083000000
O    -3.481000000     0.388000000    -1.762000000
H    -3.112000000     0.019000000    -0.959000000
H    -4.408000000     0.518000000    -1.562000000
O     0.417000000    -2.780000000    -6.890000000
H     0.951000000    -3.478000000    -7.268000000
H     0.322000000    -2.141000000    -7.597000000
O    -5.087000000     2.789000000     4.481000000
H    -4.671000000     1.945000000     4.305000000
H    -4.964000000     3.289000000     3.674000000
O     3.868000000     2.684000000    -3.097000000
H     4.317000000     2.633000000    -3.940000000
H     2.938000000     2.622000000    -3.317000000
O    -1.248000000     2.377000000    -3.742000000
H    -1.922000000     1.872000000    -4.197000000
H    -0.886000000     2.954000000    -4.415000000
O    -0.858000000     0.120000000    -6.434000000
H    -1.573000000     0.342000000    -5.838000000
H    -1.255000000    -0.469000000    -7.076000000
O    -3.895000000     0.484000000     2.978000000
H    -3.001000000     0.790000000     3.131000000
H    -3.825000000    -0.470000000     2.975000000
