144
-2829.19786
O     4.214000000    -2.299000000     4.459000000
H     4.548000000    -2.241000000     5.354000000
H     4.212000000    -1.394000000     4.145000000
O    -4.212000000    -2.588000000     3.782000000
H    -5.025000000    -2.974000000     4.109000000
H    -3.580000000    -2.728000000     4.487000000
O     5.399000000     3.344000000     2.403000000
H     5.366000000     2.388000000     2.429000000
H     4.683000000     3.592000000     1.818000000
O     0.769000000     4.730000000     3.055000000
H     1.186000000     3.874000000     2.953000000
H     0.784000000     5.111000000     2.177000000
O     2.115000000     2.948000000     5.442000000
H     1.612000000     2.977000000     6.255000000
H     1.678000000     2.280000000     4.913000000
O     1.161000000    -5.099000000    -3.953000000
H     0.449000000    -5.068000000    -3.314000000
H     0.926000000    -5.819000000    -4.538000000
O    -1.818000000     4.046000000    -0.091000000
H    -0.875000000     4.135000000     0.043000000
H    -2.072000000     4.846000000    -0.551000000
O     1.203000000    -0.970000000     6.082000000
H     1.285000000    -0.419000000     5.304000000
H     0.900000000    -1.814000000     5.748000000
O    -4.654000000    -0.027000000    -1.346000000
H    -3.954000000     0.406000000    -0.856000000
H    -4.785000000    -0.859000000    -0.891000000
O    -1.376000000     1.809000000     5.624000000
H    -1.727000000     2.578000000     5.175000000
H    -0.999000000     1.275000000     4.926000000
O    -1.221000000     1.024000000    -4.667000000
H    -2.176000000     0.968000000    -4.642000000
H    -0.973000000     0.532000000    -5.450000000
O     0.758000000     5.524000000    -2.468000000
H     1.220000000     4.714000000    -2.683000000
H    -0.101000000     5.427000000    -2.879000000
O     0.815000000     5.519000000     0.526000000
H     1.617000000     5.175000000     0.133000000
H     0.479000000     6.140000000    -0.120000000
O     3.169000000    -1.117000000    -0.762000000
H     3.227000000    -2.010000000    -0.423000000
H     2.250000000    -0.876000000    -0.646000000
O    -0.193000000    -1.010000000     8.572000000
H    -1.140000000    -0.977000000     8.441000000
H     0.172000000    -1.018000000     7.687000000
O    -0.001000000     2.701000000     7.717000000
H    -0.546000000     2.273000000     7.056000000
H    -0.389000000     3.570000000     7.820000000
O    -1.571000000    -0.887000000    -6.548000000
H    -1.942000000    -1.609000000    -6.040000000
H    -1.094000000    -1.315000000    -7.259000000
O     4.025000000     0.464000000     3.626000000
H     4.059000000     0.238000000     2.696000000
H     3.301000000     1.087000000     3.695000000
O    -0.411000000    -4.143000000     2.027000000
H    -1.291000000    -3.814000000     2.211000000
H    -0.557000000    -4.960000000     1.549000000
O     3.095000000     4.329000000    -0.952000000
H     3.576000000     4.997000000    -1.439000000
H     3.429000000     3.498000000    -1.291000000
O    -3.849000000     2.590000000     7.143000000
H    -4.362000000     3.256000000     6.684000000
H    -3.272000000     2.228000000     6.471000000
O    -5.191000000    -2.427000000    -4.390000000
H    -5.908000000    -2.562000000    -3.770000000
H    -5.605000000    -2.484000000    -5.251000000
O    -3.841000000    -4.525000000    -2.617000000
H    -3.936000000    -3.997000000    -3.409000000
H    -2.903000000    -4.708000000    -2.562000000
O     4.656000000     0.812000000     0.942000000
H     5.473000000     0.859000000     0.446000000
H     4.077000000     0.275000000     0.401000000
O    -1.408000000    -5.293000000    -2.177000000
H    -1.799000000    -6.146000000    -2.368000000
H    -0.895000000    -5.437000000    -1.382000000
O     0.274000000    -3.225000000     4.576000000
H     0.894000000    -3.903000000     4.847000000
H    -0.085000000    -3.546000000     3.749000000
O     2.689000000    -3.532000000     2.571000000
H     3.115000000    -3.051000000     3.280000000
H     1.762000000    -3.306000000     2.652000000
O    -4.065000000     2.527000000    -4.953000000
H    -4.097000000     2.948000000    -4.094000000
H    -3.926000000     1.600000000    -4.760000000
O    -3.644000000     3.730000000    -2.535000000
H    -2.933000000     3.266000000    -2.093000000
H    -3.978000000     4.340000000    -1.877000000
O     3.213000000    -3.726000000     0.041000000
H     2.989000000    -3.513000000     0.947000000
H     2.875000000    -4.613000000    -0.088000000
O    -0.543000000    -3.011000000    -8.065000000
H     0.151000000    -3.047000000    -8.723000000
H    -0.079000000    -3.027000000    -7.228000000
O     2.196000000     5.566000000     5.536000000
H     1.454000000     6.074000000     5.208000000
H     2.071000000     4.692000000     5.167000000
O     0.861000000    -2.755000000    -5.295000000
H     1.054000000    -3.551000000    -4.800000000
H     0.161000000    -2.329000000    -4.800000000
O    -3.024000000     1.703000000     0.187000000
H    -2.398000000     1.011000000     0.399000000
H    -2.486000000     2.487000000     0.078000000
O     0.249000000     7.132000000     4.613000000
H    -0.513000000     7.682000000     4.434000000
H     0.375000000     6.628000000     3.810000000
O     5.724000000     3.201000000    -1.075000000
H     5.424000000     2.873000000    -1.923000000
H     6.583000000     2.795000000    -0.952000000
O     4.522000000     0.249000000    -3.782000000
H     4.421000000    -0.062000000    -2.882000000
H     3.945000000    -0.315000000    -4.297000000
O     0.983000000     2.958000000    -3.861000000
H     0.696000000     3.462000000    -4.623000000
H     0.426000000     2.179000000    -3.866000000
O     3.715000000     2.521000000    -5.653000000
H     3.024000000     2.422000000    -4.998000000
H     4.198000000     1.696000000    -5.617000000
O    -5.018000000    -2.474000000     0.141000000
H    -5.802000000    -2.255000000     0.645000000
H    -5.290000000    -3.201000000    -0.420000000
O     4.990000000     3.721000000     5.917000000
H     4.049000000     3.653000000     5.759000000
H     5.348000000     2.895000000     5.593000000
O    -2.406000000    -3.282000000    -5.589000000
H    -2.450000000    -3.979000000    -6.243000000
H    -3.314000000    -3.001000000    -5.477000000
O     2.718000000    -0.821000000    -5.525000000
H     2.826000000    -0.468000000    -6.409000000
H     1.910000000    -1.332000000    -5.569000000
O    -2.169000000    -2.620000000     5.491000000
H    -2.140000000    -2.083000000     6.282000000
H    -1.319000000    -2.478000000     5.074000000
O    -3.210000000    -4.364000000     1.827000000
H    -3.627000000    -3.762000000     2.444000000
H    -3.567000000    -4.118000000     0.974000000
O    -3.876000000    -0.168000000    -4.117000000
H    -4.383000000    -0.951000000    -4.329000000
H    -3.877000000    -0.133000000    -3.161000000
O    -2.013000000     4.262000000     4.483000000
H    -1.535000000     4.105000000     3.669000000
H    -2.612000000     4.978000000     4.275000000
O    -5.469000000     0.232000000     3.105000000
H    -5.545000000    -0.450000000     2.437000000
H    -5.121000000    -0.222000000     3.872000000
