144
-2832.09100
O     3.160000000    -5.775000000     4.801000000
H     3.670000000    -4.970000000     4.896000000
H     2.263000000    -5.474000000     4.658000000
O     4.687000000    -1.044000000     6.169000000
H     5.421000000    -0.716000000     5.650000000
H     5.095000000    -1.578000000     6.851000000
O     3.620000000     3.844000000     0.147000000
H     4.572000000     3.906000000     0.073000000
H     3.461000000     3.696000000     1.079000000
O     4.379000000     2.023000000    -4.150000000
H     3.914000000     1.303000000    -3.722000000
H     3.730000000     2.724000000    -4.212000000
O     1.945000000     3.236000000    -4.278000000
H     1.563000000     3.781000000    -3.590000000
H     1.701000000     2.341000000    -4.038000000
O    -3.417000000    -0.554000000     2.164000000
H    -3.199000000    -0.682000000     3.087000000
H    -2.687000000    -0.950000000     1.688000000
O    -3.803000000     4.271000000    -3.281000000
H    -3.328000000     5.052000000    -2.994000000
H    -3.242000000     3.882000000    -3.952000000
O    -5.997000000     2.811000000    -3.249000000
H    -5.211000000     3.351000000    -3.161000000
H    -5.963000000     2.483000000    -4.148000000
O     5.841000000    -2.969000000     0.988000000
H     5.605000000    -2.348000000     0.299000000
H     5.343000000    -2.681000000     1.752000000
O     0.156000000    -1.906000000     8.364000000
H     0.241000000    -1.715000000     7.430000000
H    -0.124000000    -2.821000000     8.397000000
O     3.184000000     3.214000000     3.054000000
H     2.746000000     2.516000000     3.542000000
H     2.763000000     4.019000000     3.356000000
O    -1.913000000    -3.615000000     3.331000000
H    -2.649000000    -3.824000000     2.756000000
H    -1.188000000    -3.428000000     2.735000000
O    -4.209000000     0.097000000    -2.647000000
H    -3.671000000     0.408000000    -1.918000000
H    -4.891000000     0.762000000    -2.742000000
O    -1.645000000     3.113000000    -4.716000000
H    -0.898000000     3.580000000    -5.090000000
H    -1.437000000     2.187000000    -4.843000000
O     2.880000000     6.459000000    -0.971000000
H     3.597000000     6.529000000    -1.601000000
H     2.978000000     5.586000000    -0.592000000
O     2.729000000    -4.135000000     1.375000000
H     3.349000000    -3.623000000     1.895000000
H     1.875000000    -3.752000000     1.577000000
O     0.687000000    -4.822000000     4.490000000
H    -0.115000000    -5.343000000     4.508000000
H     0.551000000    -4.196000000     3.779000000
O     0.964000000    -3.142000000    -4.728000000
H     0.765000000    -3.698000000    -5.481000000
H     0.605000000    -3.617000000    -3.978000000
O     4.047000000    -1.993000000     3.070000000
H     4.540000000    -2.100000000     3.884000000
H     3.179000000    -1.703000000     3.353000000
O     6.269000000     0.150000000     3.487000000
H     6.738000000     0.531000000     2.744000000
H     5.401000000    -0.059000000     3.141000000
O     2.030000000     1.085000000     4.543000000
H     1.242000000     1.220000000     5.071000000
H     1.895000000     0.235000000     4.124000000
O    -2.051000000    -0.464000000     4.691000000
H    -1.193000000    -0.828000000     4.910000000
H    -2.675000000    -1.112000000     5.017000000
O     4.980000000    -0.039000000     0.852000000
H     4.074000000    -0.018000000     1.158000000
H     4.954000000    -0.584000000     0.064000000
O     3.133000000     1.362000000    -1.315000000
H     2.343000000     1.104000000    -0.840000000
H     3.263000000     2.281000000    -1.083000000
O    -1.111000000    -6.812000000     1.648000000
H    -1.204000000    -7.510000000     1.001000000
H    -1.937000000    -6.330000000     1.601000000
O     1.159000000    -5.774000000    -0.279000000
H     1.848000000    -5.249000000     0.129000000
H     0.523000000    -5.919000000     0.421000000
O     2.843000000    -6.930000000     2.424000000
H     2.882000000    -6.474000000     3.264000000
H     2.865000000    -6.231000000     1.771000000
O    -5.021000000    -2.428000000    -3.734000000
H    -5.265000000    -2.289000000    -4.649000000
H    -4.632000000    -1.597000000    -3.461000000
O    -2.398000000    -3.525000000    -2.530000000
H    -2.641000000    -3.129000000    -1.693000000
H    -3.035000000    -3.177000000    -3.154000000
O    -0.705000000     6.870000000    -0.227000000
H    -0.916000000     7.633000000     0.312000000
H    -0.813000000     6.124000000     0.363000000
O    -3.757000000    -2.403000000     5.021000000
H    -3.074000000    -2.829000000     4.503000000
H    -4.280000000    -3.125000000     5.369000000
O     0.713000000    -0.423000000    -4.637000000
H     0.799000000    -1.375000000    -4.687000000
H    -0.032000000    -0.220000000    -5.203000000
O    -1.761000000     5.920000000    -2.452000000
H    -2.146000000     6.701000000    -2.850000000
H    -1.267000000     6.252000000    -1.703000000
O    -0.646000000     1.980000000     6.169000000
H    -1.188000000     1.301000000     5.769000000
H    -1.269000000     2.550000000     6.621000000
O     3.210000000     0.694000000     7.747000000
H     3.501000000     0.043000000     7.107000000
H     4.020000000     1.070000000     8.091000000
O     3.400000000    -0.816000000    -3.635000000
H     2.488000000    -0.575000000    -3.473000000
H     3.410000000    -1.771000000    -3.573000000
O     0.736000000     4.992000000    -2.624000000
H    -0.182000000     5.253000000    -2.703000000
H     1.082000000     5.545000000    -1.924000000
O     0.185000000    -1.972000000     5.547000000
H     0.519000000    -1.580000000     4.739000000
H     0.547000000    -2.858000000     5.550000000
O     0.402000000     3.257000000    -6.647000000
H     0.579000000     2.680000000    -7.389000000
H     1.155000000     3.141000000    -6.067000000
O    -3.407000000    -5.277000000     1.467000000
H    -3.670000000    -5.482000000     0.570000000
H    -4.038000000    -5.744000000     2.015000000
O     1.079000000     6.184000000    -5.328000000
H     2.025000000     6.040000000    -5.327000000
H     0.719000000     5.411000000    -4.893000000
O    -1.359000000     4.967000000     1.651000000
H    -2.029000000     4.519000000     1.135000000
H    -1.091000000     4.323000000     2.306000000
O     0.236000000    -4.566000000    -2.664000000
H    -0.616000000    -4.163000000    -2.493000000
H     0.415000000    -5.087000000    -1.881000000
O    -0.495000000     3.092000000     3.586000000
H    -0.709000000     3.310000000     4.493000000
H    -0.157000000     2.197000000     3.627000000
O    -1.300000000    -0.256000000    -6.993000000
H    -1.718000000    -1.093000000    -7.196000000
H    -0.402000000    -0.353000000    -7.309000000
O    -3.908000000    -2.236000000    -0.642000000
H    -4.379000000    -2.160000000     0.188000000
H    -4.253000000    -1.523000000    -1.179000000
O    -3.532000000     3.992000000    -0.130000000
H    -3.313000000     3.624000000    -0.986000000
H    -4.021000000     4.790000000    -0.331000000
O    -3.793000000     1.230000000    -0.034000000
H    -3.801000000     0.741000000     0.789000000
H    -4.122000000     2.098000000     0.200000000
