144
-2811.88769
O     5.442000000    -3.077000000     3.826000000
H     4.793000000    -3.777000000     3.899000000
H     5.324000000    -2.557000000     4.621000000
O     5.105000000     0.926000000     3.689000000
H     5.089000000     0.388000000     2.898000000
H     5.937000000     0.708000000     4.110000000
O     2.095000000     5.957000000     0.772000000
H     1.781000000     5.358000000     0.095000000
H     2.965000000     5.628000000     0.997000000
O     2.961000000    -1.899000000     7.636000000
H     3.215000000    -1.700000000     6.735000000
H     2.649000000    -2.804000000     7.602000000
O    -0.069000000    -1.758000000    -7.230000000
H     0.043000000    -2.232000000    -8.054000000
H     0.495000000    -2.221000000    -6.610000000
O    -1.029000000     0.887000000     5.230000000
H    -0.465000000     0.797000000     4.462000000
H    -0.462000000     1.273000000     5.898000000
O    -3.038000000    -3.445000000    -1.146000000
H    -2.412000000    -3.652000000    -1.840000000
H    -3.876000000    -3.770000000    -1.475000000
O    -3.946000000     2.930000000     0.811000000
H    -3.334000000     3.282000000     1.457000000
H    -3.947000000     1.986000000     0.972000000
O     3.826000000    -2.778000000    -0.237000000
H     3.968000000    -1.836000000    -0.146000000
H     4.700000000    -3.139000000    -0.385000000
O     0.220000000     3.666000000     4.214000000
H     1.040000000     3.173000000     4.177000000
H     0.294000000     4.307000000     3.507000000
O     0.782000000    -2.314000000     5.161000000
H     0.245000000    -2.988000000     4.745000000
H     0.886000000    -1.641000000     4.489000000
O    -1.870000000     2.685000000    -4.825000000
H    -1.976000000     3.496000000    -5.322000000
H    -1.545000000     2.967000000    -3.970000000
O    -2.400000000    -1.043000000     3.323000000
H    -2.096000000    -0.422000000     3.985000000
H    -1.964000000    -1.865000000     3.548000000
O     1.026000000     4.371000000    -1.214000000
H     0.559000000     4.933000000    -1.834000000
H     0.415000000     3.658000000    -1.032000000
O     2.175000000    -3.968000000     2.242000000
H     2.893000000    -4.022000000     1.611000000
H     2.185000000    -3.057000000     2.537000000
O    -1.892000000     4.234000000     6.363000000
H    -1.296000000     3.831000000     5.732000000
H    -2.739000000     3.823000000     6.189000000
O     3.841000000    -1.204000000     5.311000000
H     4.240000000    -0.345000000     5.449000000
H     3.404000000    -1.132000000     4.463000000
O     3.833000000    -3.547000000    -3.634000000
H     3.958000000    -4.482000000    -3.469000000
H     3.390000000    -3.222000000    -2.850000000
O     4.613000000    -0.548000000     1.361000000
H     4.029000000    -0.809000000     2.072000000
H     4.039000000    -0.127000000     0.721000000
O    -1.017000000    -3.632000000     3.535000000
H    -1.316000000    -3.289000000     2.693000000
H    -1.385000000    -4.514000000     3.579000000
O     2.646000000     2.186000000     4.053000000
H     3.478000000     1.822000000     3.749000000
H     2.003000000     1.501000000     3.867000000
O     1.570000000     2.661000000     8.336000000
H     1.278000000     1.877000000     7.870000000
H     2.349000000     2.947000000     7.859000000
O    -2.892000000    -1.546000000    -6.441000000
H    -1.942000000    -1.626000000    -6.523000000
H    -3.191000000    -1.330000000    -7.325000000
O    -6.095000000     2.571000000    -2.624000000
H    -5.957000000     2.838000000    -3.533000000
H    -5.658000000     3.247000000    -2.107000000
O     3.443000000     3.556000000     6.324000000
H     3.054000000     3.263000000     5.500000000
H     4.027000000     2.842000000     6.581000000
O     7.023000000    -0.181000000     0.260000000
H     6.197000000    -0.470000000     0.648000000
H     6.793000000     0.068000000    -0.635000000
O     3.270000000     0.019000000    -1.026000000
H     3.787000000     0.180000000    -1.816000000
H     2.361000000     0.094000000    -1.316000000
O     0.464000000    -5.366000000     0.766000000
H     1.044000000    -5.204000000     1.511000000
H    -0.258000000    -4.749000000     0.886000000
O     1.924000000    -5.372000000     4.974000000
H     1.374000000    -6.137000000     4.806000000
H     1.734000000    -4.777000000     4.249000000
O    -3.754000000     0.407000000    -4.720000000
H    -3.030000000     1.032000000    -4.763000000
H    -3.481000000    -0.315000000    -5.286000000
O    -5.347000000     2.285000000    -5.442000000
H    -5.930000000     2.174000000    -6.193000000
H    -4.889000000     1.448000000    -5.369000000
O    -2.765000000    -0.630000000     6.797000000
H    -2.453000000     0.034000000     6.182000000
H    -1.967000000    -1.025000000     7.149000000
O    -1.294000000    -3.870000000    -3.196000000
H    -0.590000000    -3.906000000    -2.550000000
H    -0.863000000    -4.052000000    -4.031000000
O    -0.750000000    -2.065000000     7.741000000
H    -1.067000000    -2.964000000     7.825000000
H    -0.073000000    -2.112000000     7.066000000
O    -3.515000000    -3.794000000    -5.046000000
H    -3.278000000    -2.938000000    -5.403000000
H    -2.804000000    -4.007000000    -4.442000000
O     2.825000000    -1.947000000    -6.136000000
H     3.728000000    -1.670000000    -5.981000000
H     2.613000000    -2.502000000    -5.385000000
O    -1.481000000    -2.944000000     0.885000000
H    -2.061000000    -3.083000000     0.136000000
H    -1.005000000    -2.141000000     0.674000000
O     1.136000000     3.905000000    -6.200000000
H     1.295000000     3.135000000    -5.655000000
H     1.891000000     4.471000000    -6.043000000
O     1.210000000     0.523000000     6.815000000
H     1.132000000     0.387000000     5.871000000
H     1.784000000    -0.184000000     7.112000000
O    -5.920000000    -0.242000000    -2.903000000
H    -5.316000000    -0.218000000    -3.646000000
H    -5.807000000     0.608000000    -2.476000000
O     0.122000000     5.869000000     2.406000000
H     0.904000000     5.740000000     1.869000000
H     0.210000000     6.759000000     2.746000000
O     1.318000000    -4.107000000    -1.573000000
H     2.040000000    -3.746000000    -1.059000000
H     0.880000000    -4.714000000    -0.976000000
O     3.509000000     1.443000000    -5.105000000
H     3.682000000     0.870000000    -4.359000000
H     2.712000000     1.089000000    -5.500000000
O    -2.314000000     4.226000000     2.838000000
H    -1.615000000     4.694000000     2.382000000
H    -2.055000000     4.248000000     3.759000000
O     0.534000000     0.889000000    -6.162000000
H    -0.193000000     1.447000000    -5.886000000
H     0.120000000     0.062000000    -6.410000000
O    -3.545000000     0.113000000     1.231000000
H    -3.148000000    -0.024000000     0.370000000
H    -3.072000000    -0.485000000     1.810000000
O    -4.921000000     4.523000000    -1.164000000
H    -4.647000000     5.390000000    -0.863000000
H    -4.618000000     3.925000000    -0.481000000
O    -2.051000000     4.011000000    -2.377000000
H    -2.938000000     4.298000000    -2.163000000
H    -1.512000000     4.794000000    -2.266000000
