144
-2867.30275
O    -2.191000000     6.103000000    -1.906000000
H    -2.256000000     6.963000000    -2.320000000
H    -1.315000000     5.793000000    -2.135000000
O    -0.578000000    -5.406000000    -0.511000000
H    -1.425000000    -5.120000000    -0.169000000
H     0.044000000    -5.202000000     0.187000000
O     0.485000000    -1.314000000     5.923000000
H     1.305000000    -0.850000000     6.093000000
H    -0.124000000    -0.631000000     5.645000000
O    -4.157000000     0.408000000    -4.080000000
H    -4.487000000     1.296000000    -3.940000000
H    -3.317000000     0.531000000    -4.521000000
O    -1.846000000     3.367000000    -5.356000000
H    -1.754000000     4.112000000    -4.762000000
H    -1.470000000     3.671000000    -6.182000000
O    -6.917000000     2.953000000     0.783000000
H    -7.412000000     2.281000000     0.316000000
H    -6.270000000     3.259000000     0.148000000
O    -4.553000000    -1.667000000    -2.438000000
H    -3.938000000    -2.319000000    -2.774000000
H    -4.188000000    -0.827000000    -2.716000000
O     4.903000000     0.725000000     2.558000000
H     4.202000000     0.105000000     2.358000000
H     5.261000000     0.422000000     3.392000000
O    -1.720000000     0.202000000     4.976000000
H    -1.694000000     0.418000000     4.044000000
H    -2.015000000     1.007000000     5.400000000
O    -4.587000000    -1.631000000     0.681000000
H    -4.618000000    -1.531000000    -0.270000000
H    -5.331000000    -2.197000000     0.886000000
O     2.750000000     2.913000000     4.534000000
H     2.310000000     3.763000000     4.517000000
H     2.115000000     2.306000000     4.152000000
O     2.617000000    -0.032000000     4.588000000
H     3.477000000    -0.134000000     4.998000000
H     2.739000000    -0.347000000     3.693000000
O     0.103000000     4.559000000    -1.835000000
H    -0.078000000     4.384000000    -0.911000000
H     0.571000000     3.781000000    -2.138000000
O     4.416000000     2.527000000    -1.579000000
H     4.125000000     3.268000000    -1.046000000
H     4.390000000     1.779000000    -0.983000000
O    -2.689000000    -2.309000000     4.549000000
H    -2.037000000    -2.870000000     4.130000000
H    -2.311000000    -1.431000000     4.510000000
O     0.512000000    -1.972000000    -2.883000000
H     0.721000000    -1.275000000    -3.505000000
H    -0.300000000    -1.686000000    -2.465000000
O     5.618000000    -0.664000000     4.975000000
H     6.503000000    -0.326000000     4.841000000
H     5.722000000    -1.615000000     4.976000000
O    -2.796000000     6.302000000     0.763000000
H    -2.931000000     6.150000000    -0.172000000
H    -2.073000000     6.928000000     0.802000000
O     0.553000000    -6.294000000    -2.737000000
H    -0.234000000    -6.419000000    -3.268000000
H     0.226000000    -5.976000000    -1.895000000
O    -4.329000000     0.930000000     1.571000000
H    -4.513000000     1.717000000     1.059000000
H    -4.474000000     0.207000000     0.960000000
O    -1.825000000     0.654000000     2.368000000
H    -1.536000000     0.180000000     1.588000000
H    -2.754000000     0.827000000     2.212000000
O    -4.373000000     3.730000000    -0.477000000
H    -3.604000000     4.299000000    -0.454000000
H    -4.468000000     3.491000000    -1.399000000
O    -0.244000000    -6.726000000     2.237000000
H     0.330000000    -6.841000000     1.481000000
H    -0.003000000    -5.871000000     2.593000000
O     0.506000000     5.412000000    -4.466000000
H     1.157000000     4.723000000    -4.599000000
H     0.383000000     5.445000000    -3.517000000
O    -0.523000000    -3.996000000     3.419000000
H    -0.191000000    -4.016000000     4.316000000
H     0.092000000    -3.434000000     2.948000000
O     4.891000000     3.232000000     1.289000000
H     4.901000000     2.507000000     1.914000000
H     5.278000000     3.965000000     1.767000000
O    -2.854000000    -4.142000000     0.515000000
H    -3.292000000    -3.297000000     0.620000000
H    -3.063000000    -4.622000000     1.316000000
O     2.637000000     4.248000000    -0.363000000
H     3.178000000     4.090000000     0.410000000
H     1.775000000     4.471000000    -0.012000000
O    -1.802000000     0.685000000    -5.333000000
H    -1.678000000     1.634000000    -5.328000000
H    -2.018000000     0.476000000    -6.242000000
O    -6.693000000     0.330000000    -1.020000000
H    -7.496000000    -0.135000000    -0.785000000
H    -6.424000000    -0.061000000    -1.851000000
O     5.781000000    -3.440000000     5.017000000
H     5.144000000    -3.496000000     5.729000000
H     5.275000000    -3.635000000     4.228000000
O     4.509000000    -5.489000000     0.329000000
H     4.894000000    -4.684000000    -0.015000000
H     5.125000000    -6.177000000     0.075000000
O    -4.729000000     3.384000000    -3.348000000
H    -5.474000000     3.875000000    -3.694000000
H    -4.046000000     3.488000000    -4.011000000
O     1.991000000    -3.388000000     4.677000000
H     1.501000000    -2.705000000     5.135000000
H     1.870000000    -3.188000000     3.749000000
O     3.089000000    -1.581000000    -1.923000000
H     3.265000000    -1.253000000    -2.804000000
H     2.134000000    -1.586000000    -1.855000000
O     1.650000000     2.260000000    -3.233000000
H     1.265000000     1.448000000    -3.563000000
H     2.231000000     1.979000000    -2.525000000
O    -0.163000000     2.714000000     3.202000000
H    -0.556000000     2.892000000     4.057000000
H    -0.697000000     2.010000000     2.835000000
O     1.993000000    -5.304000000     1.222000000
H     2.914000000    -5.527000000     1.090000000
H     1.998000000    -4.367000000     1.415000000
O     0.007000000     4.478000000     0.873000000
H    -0.051000000     3.883000000     1.621000000
H    -0.036000000     5.353000000     1.259000000
O     5.236000000    -3.181000000    -0.999000000
H     4.456000000    -2.896000000    -1.474000000
H     5.967000000    -2.810000000    -1.493000000
O     4.568000000    -3.443000000     2.690000000
H     4.651000000    -3.904000000     1.855000000
H     3.862000000    -2.813000000     2.547000000
O     3.049000000     5.469000000    -2.772000000
H     3.916000000     5.694000000    -2.434000000
H     2.691000000     4.860000000    -2.126000000
O     5.154000000     0.082000000    -0.276000000
H     4.556000000    -0.664000000    -0.317000000
H     5.095000000     0.386000000     0.630000000
O     3.145000000    -6.335000000     4.933000000
H     2.520000000    -6.360000000     5.657000000
H     3.012000000    -5.476000000     4.531000000
O     3.755000000    -3.915000000     6.802000000
H     3.724000000    -3.167000000     7.398000000
H     2.988000000    -3.804000000     6.239000000
O     0.653000000     0.053000000    -4.770000000
H     1.284000000     0.612000000    -5.223000000
H    -0.194000000     0.299000000    -5.141000000
O    -2.161000000    -3.193000000    -2.527000000
H    -2.512000000    -3.336000000    -1.648000000
H    -2.045000000    -4.073000000    -2.885000000
O    -3.606000000     4.791000000     2.840000000
H    -3.298000000     5.188000000     2.025000000
H    -4.463000000     4.427000000     2.620000000
