144
-2783.66069
O    -2.752000000     5.459000000    -3.897000000
H    -2.359000000     5.958000000    -3.181000000
H    -2.152000000     4.727000000    -4.036000000
O     0.285000000    -6.997000000    -2.016000000
H     0.270000000    -6.120000000    -1.631000000
H    -0.137000000    -7.553000000    -1.361000000
O     3.343000000    -7.988000000    -0.255000000
H     4.248000000    -8.053000000    -0.559000000
H     3.121000000    -7.063000000    -0.359000000
O     3.163000000     1.378000000    -5.767000000
H     3.142000000     0.804000000    -6.533000000
H     4.065000000     1.694000000    -5.730000000
O     6.610000000    -2.438000000     1.215000000
H     5.670000000    -2.268000000     1.263000000
H     6.994000000    -1.847000000     1.863000000
O     1.582000000    -2.752000000     6.500000000
H     2.165000000    -1.994000000     6.466000000
H     1.424000000    -2.890000000     7.434000000
O    -4.659000000     1.826000000    -1.344000000
H    -4.387000000     1.763000000    -2.260000000
H    -5.440000000     2.379000000    -1.363000000
O     3.068000000     5.842000000    -1.883000000
H     3.687000000     6.565000000    -1.986000000
H     3.598000000     5.118000000    -1.550000000
O    -0.980000000     3.684000000    -5.103000000
H    -0.538000000     3.394000000    -4.306000000
H    -0.325000000     3.578000000    -5.793000000
O    -1.927000000     2.426000000     3.706000000
H    -2.524000000     3.037000000     4.137000000
H    -1.188000000     2.348000000     4.309000000
O    -5.126000000    -1.037000000    -3.149000000
H    -5.308000000    -1.448000000    -3.994000000
H    -4.583000000    -0.278000000    -3.364000000
O     4.045000000    -1.322000000     0.198000000
H     3.397000000    -1.919000000     0.572000000
H     4.280000000    -0.740000000     0.921000000
O    -3.331000000    -1.936000000     1.930000000
H    -3.078000000    -1.338000000     1.227000000
H    -3.311000000    -1.398000000     2.721000000
O    -3.787000000    -0.756000000    -0.481000000
H    -4.605000000    -1.149000000    -0.784000000
H    -3.902000000     0.182000000    -0.632000000
O    -1.447000000     6.663000000    -1.673000000
H    -0.859000000     5.946000000    -1.910000000
H    -0.884000000     7.297000000    -1.227000000
O     1.102000000    -0.449000000     4.086000000
H     1.729000000    -0.709000000     4.762000000
H     0.850000000    -1.271000000     3.665000000
O     0.400000000     5.535000000    -3.137000000
H     0.425000000     5.846000000    -4.042000000
H     1.314000000     5.342000000    -2.925000000
O    -1.307000000    -3.853000000     3.207000000
H    -0.434000000    -3.505000000     3.029000000
H    -1.896000000    -3.291000000     2.704000000
O     3.274000000    -5.350000000    -1.027000000
H     3.486000000    -4.673000000    -1.670000000
H     2.368000000    -5.167000000    -0.776000000
O    -3.441000000     7.002000000     0.178000000
H    -3.873000000     6.163000000     0.337000000
H    -2.878000000     6.841000000    -0.579000000
O    -2.994000000     4.921000000     2.627000000
H    -3.722000000     4.559000000     2.121000000
H    -3.371000000     5.670000000     3.087000000
O    -3.366000000    -0.185000000     3.967000000
H    -3.000000000     0.649000000     3.673000000
H    -4.273000000     0.020000000     4.196000000
O     0.097000000     1.844000000     5.130000000
H     0.811000000     2.433000000     5.373000000
H     0.520000000     1.148000000     4.627000000
O    -4.665000000     4.268000000     0.150000000
H    -5.550000000     3.923000000     0.034000000
H    -4.091000000     3.555000000    -0.130000000
O     1.093000000    -7.523000000     3.368000000
H     0.351000000    -7.379000000     2.781000000
H     1.271000000    -6.662000000     3.744000000
O    -2.282000000    -0.956000000    -6.335000000
H    -2.210000000    -0.611000000    -5.445000000
H    -1.860000000    -0.295000000    -6.883000000
O     2.680000000     3.669000000    -4.466000000
H     2.442000000     3.032000000    -5.139000000
H     3.242000000     3.182000000    -3.863000000
O     1.386000000    -4.822000000     4.427000000
H     1.713000000    -4.255000000     5.124000000
H     0.928000000    -4.229000000     3.831000000
O     0.010000000    -0.579000000     6.958000000
H     0.335000000    -1.446000000     6.713000000
H    -0.455000000    -0.269000000     6.181000000
O     2.523000000     1.456000000     2.481000000
H     1.959000000     0.791000000     2.875000000
H     3.299000000     0.974000000     2.196000000
O    -1.142000000    -4.492000000     6.570000000
H    -0.591000000    -4.866000000     5.883000000
H    -1.219000000    -3.566000000     6.338000000
O    -2.080000000    -3.167000000    -1.026000000
H    -2.480000000    -2.345000000    -0.741000000
H    -2.794000000    -3.805000000    -0.990000000
O    -2.149000000    -0.065000000    -3.677000000
H    -1.652000000     0.708000000    -3.945000000
H    -1.981000000    -0.142000000    -2.737000000
O    -2.813000000    -1.884000000     5.983000000
H    -3.094000000    -1.348000000     5.241000000
H    -3.585000000    -2.403000000     6.209000000
O    -6.114000000     2.203000000     2.657000000
H    -6.624000000     1.807000000     1.951000000
H    -5.591000000     1.482000000     3.008000000
O     1.882000000    -2.353000000    -4.644000000
H     1.159000000    -2.502000000    -4.035000000
H     2.351000000    -1.603000000    -4.280000000
O     5.007000000    -2.959000000    -1.903000000
H     5.714000000    -3.418000000    -1.451000000
H     4.747000000    -2.265000000    -1.297000000
O    -4.347000000     2.231000000    -4.116000000
H    -4.876000000     1.576000000    -4.572000000
H    -3.571000000     2.338000000    -4.666000000
O     0.387000000    -4.565000000    -0.697000000
H     0.936000000    -3.992000000    -0.161000000
H    -0.504000000    -4.244000000    -0.556000000
O     0.434000000     0.944000000    -4.917000000
H     0.588000000     1.065000000    -5.854000000
H     1.309000000     0.864000000    -4.539000000
O    -0.239000000     3.758000000     1.885000000
H    -0.177000000     2.807000000     1.974000000
H    -1.180000000     3.937000000     1.873000000
O     3.620000000    -5.054000000     2.131000000
H     3.756000000    -5.236000000     1.201000000
H     2.904000000    -4.420000000     2.149000000
O     1.056000000     6.992000000     0.549000000
H     1.162000000     6.135000000     0.135000000
H     1.921000000     7.192000000     0.909000000
O     4.381000000    -1.382000000    -3.929000000
H     4.710000000    -1.520000000    -4.818000000
H     4.341000000    -2.260000000    -3.550000000
O     5.010000000    -4.308000000     4.854000000
H     4.666000000    -4.834000000     5.575000000
H     4.336000000    -4.360000000     4.176000000
O     5.298000000     0.783000000    -2.725000000
H     5.162000000     1.438000000    -3.409000000
H     4.943000000    -0.026000000    -3.094000000
O    -0.515000000    -2.441000000    -3.336000000
H    -0.803000000    -2.712000000    -2.465000000
H    -1.000000000    -1.634000000    -3.509000000
O    -2.679000000    -6.070000000     3.465000000
H    -2.170000000    -5.268000000     3.573000000
H    -3.066000000    -6.226000000     4.326000000
