144
-2823.65287
O    -3.203000000     3.076000000    -4.135000000
H    -3.793000000     3.244000000    -3.401000000
H    -2.426000000     3.602000000    -3.944000000
O     3.960000000    -2.176000000     2.031000000
H     3.178000000    -2.718000000     2.138000000
H     4.196000000    -2.275000000     1.108000000
O    -4.417000000     1.563000000    -5.959000000
H    -4.726000000     0.935000000    -5.306000000
H    -4.272000000     2.370000000    -5.465000000
O     1.807000000     5.400000000    -2.273000000
H     1.235000000     5.999000000    -1.792000000
H     2.156000000     4.812000000    -1.602000000
O    -1.221000000     1.782000000    -5.945000000
H    -1.497000000     1.059000000    -6.508000000
H    -1.921000000     1.861000000    -5.297000000
O    -3.085000000     0.186000000    -2.309000000
H    -2.780000000    -0.460000000    -2.946000000
H    -2.373000000     0.823000000    -2.254000000
O     5.007000000    -2.147000000    -1.177000000
H     4.324000000    -2.797000000    -1.014000000
H     5.379000000    -2.398000000    -2.023000000
O    -2.367000000    -4.696000000     3.244000000
H    -2.435000000    -4.933000000     2.319000000
H    -1.927000000    -3.846000000     3.241000000
O    -3.759000000     5.832000000    -2.134000000
H    -3.973000000     6.450000000    -1.435000000
H    -3.967000000     4.973000000    -1.767000000
O    -1.554000000     5.295000000     1.121000000
H    -2.406000000     5.706000000     0.972000000
H    -1.693000000     4.723000000     1.876000000
O     0.432000000     7.032000000     2.638000000
H    -0.174000000     7.704000000     2.325000000
H     0.234000000     6.263000000     2.104000000
O     0.984000000    -4.194000000     4.713000000
H     1.871000000    -4.167000000     5.072000000
H     1.012000000    -3.602000000     3.962000000
O    -3.773000000    -3.996000000     5.691000000
H    -3.260000000    -4.132000000     4.895000000
H    -3.119000000    -3.905000000     6.384000000
O     1.354000000     2.629000000    -5.774000000
H     1.405000000     2.708000000    -6.727000000
H     0.455000000     2.348000000    -5.604000000
O    -7.550000000     2.187000000    -0.301000000
H    -6.715000000     2.300000000     0.153000000
H    -8.022000000     1.540000000     0.223000000
O     0.527000000    -5.685000000     1.756000000
H     0.192000000    -5.870000000     2.634000000
H     0.743000000    -4.753000000     1.775000000
O    -4.127000000     3.679000000    -0.654000000
H    -4.015000000     3.108000000     0.107000000
H    -5.001000000     4.055000000    -0.544000000
O    -4.090000000    -0.358000000     2.073000000
H    -4.899000000    -0.310000000     2.582000000
H    -4.328000000    -0.858000000     1.292000000
O    -0.153000000    -1.159000000     5.114000000
H    -0.233000000    -1.698000000     4.327000000
H    -0.713000000    -0.402000000     4.944000000
O     2.500000000     1.427000000     1.107000000
H     1.893000000     1.051000000     0.470000000
H     2.685000000     2.305000000     0.773000000
O    -1.817000000     0.731000000     4.012000000
H    -2.230000000     0.351000000     3.237000000
H    -2.539000000     0.874000000     4.623000000
O     0.195000000    -6.704000000     4.379000000
H     0.683000000    -7.144000000     5.075000000
H     0.398000000    -5.776000000     4.494000000
O     5.640000000     0.568000000    -1.077000000
H     5.403000000    -0.299000000    -0.748000000
H     5.962000000     0.407000000    -1.964000000
O    -1.991000000    -2.845000000    -1.452000000
H    -1.863000000    -2.078000000    -0.893000000
H    -2.866000000    -2.729000000    -1.821000000
O    -1.873000000    -4.994000000     0.358000000
H    -0.952000000    -5.052000000     0.612000000
H    -1.879000000    -4.385000000    -0.381000000
O     0.002000000     6.766000000    -0.962000000
H    -0.404000000     6.160000000    -0.342000000
H    -0.732000000     7.256000000    -1.333000000
O    -0.774000000    -3.340000000     6.619000000
H    -0.856000000    -2.502000000     6.164000000
H    -0.201000000    -3.863000000     6.057000000
O     3.527000000     0.199000000     3.470000000
H     3.329000000     0.748000000     2.711000000
H     3.702000000    -0.667000000     3.100000000
O     6.264000000    -3.190000000     2.924000000
H     5.483000000    -2.893000000     2.457000000
H     6.995000000    -2.840000000     2.415000000
O     2.465000000    -4.309000000    -2.839000000
H     2.727000000    -4.351000000    -1.919000000
H     2.353000000    -5.223000000    -3.098000000
O     5.722000000    -0.368000000    -4.058000000
H     5.230000000    -1.116000000    -4.397000000
H     5.150000000     0.384000000    -4.212000000
O    -1.955000000    -1.139000000    -4.225000000
H    -1.869000000    -1.192000000    -5.177000000
H    -1.235000000    -1.673000000    -3.890000000
O     3.366000000    -1.622000000    -4.612000000
H     3.039000000    -2.517000000    -4.699000000
H     3.110000000    -1.193000000    -5.428000000
O     0.385000000     2.382000000     2.988000000
H    -0.308000000     1.752000000     3.183000000
H     1.130000000     1.844000000     2.719000000
O     3.567000000     5.169000000    -5.693000000
H     3.670000000     5.491000000    -6.588000000
H     2.855000000     4.532000000    -5.748000000
O     3.161000000    -4.272000000    -0.065000000
H     2.465000000    -3.966000000     0.517000000
H     3.521000000    -5.041000000     0.377000000
O    -2.139000000     4.083000000     3.647000000
H    -1.392000000     3.487000000     3.591000000
H    -2.232000000     4.263000000     4.583000000
O     3.384000000     1.367000000    -4.607000000
H     2.723000000     1.979000000    -4.930000000
H     2.880000000     0.634000000    -4.254000000
O    -5.463000000     1.029000000    -3.163000000
H    -5.898000000     0.182000000    -3.262000000
H    -4.656000000     0.829000000    -2.687000000
O     4.025000000    -5.882000000     2.369000000
H     3.138000000    -6.174000000     2.156000000
H     4.096000000    -6.004000000     3.316000000
O    -5.564000000    -1.944000000    -0.445000000
H    -5.402000000    -1.557000000    -1.306000000
H    -6.512000000    -2.069000000    -0.412000000
O     2.255000000    -0.275000000     6.106000000
H     1.515000000    -0.780000000     5.767000000
H     2.835000000    -0.164000000     5.353000000
O     4.611000000     3.425000000    -3.404000000
H     4.230000000     2.659000000    -3.831000000
H     4.276000000     4.170000000    -3.904000000
O    -0.049000000    -3.128000000    -3.432000000
H     0.775000000    -3.340000000    -2.993000000
H    -0.725000000    -3.496000000    -2.864000000
O     3.180000000     3.634000000    -0.521000000
H     3.904000000     4.152000000    -0.169000000
H     3.534000000     3.240000000    -1.319000000
O    -1.220000000     5.236000000    -3.545000000
H    -1.819000000     5.596000000    -2.891000000
H    -0.479000000     4.907000000    -3.035000000
O    -2.511000000    -7.402000000     4.431000000
H    -1.580000000    -7.570000000     4.579000000
H    -2.572000000    -6.451000000     4.346000000
O    -5.221000000     2.342000000     1.284000000
H    -5.837000000     2.550000000     1.987000000
H    -4.748000000     1.573000000     1.601000000
