144
-2817.33977
O    -1.469000000    -3.783000000    -3.030000000
H    -1.155000000    -4.417000000    -3.675000000
H    -1.201000000    -2.933000000    -3.380000000
O    -5.026000000    -0.192000000     3.360000000
H    -5.460000000     0.289000000     4.064000000
H    -4.691000000    -0.983000000     3.781000000
O     1.221000000     2.926000000    -5.751000000
H     1.855000000     2.648000000    -5.090000000
H     0.785000000     2.117000000    -6.020000000
O     2.848000000     3.100000000     5.682000000
H     2.887000000     4.028000000     5.912000000
H     3.024000000     3.078000000     4.742000000
O     2.828000000    -4.332000000     0.751000000
H     1.874000000    -4.417000000     0.734000000
H     3.061000000    -4.072000000    -0.140000000
O     2.200000000     4.390000000     0.865000000
H     2.592000000     3.580000000     0.539000000
H     2.925000000     4.855000000     1.282000000
O     5.008000000    -5.396000000    -0.921000000
H     4.367000000    -4.758000000    -1.235000000
H     5.336000000    -5.023000000    -0.103000000
O    -5.639000000     1.698000000    -0.929000000
H    -5.121000000     0.943000000    -1.208000000
H    -5.552000000     1.709000000     0.024000000
O    -0.031000000    -4.563000000     0.762000000
H    -0.707000000    -3.886000000     0.799000000
H    -0.439000000    -5.282000000     0.279000000
O     0.048000000    -2.077000000    -6.004000000
H     0.035000000    -1.782000000    -5.093000000
H     0.346000000    -2.986000000    -5.957000000
O    -4.382000000     4.225000000    -1.778000000
H    -3.563000000     3.861000000    -1.443000000
H    -5.045000000     3.573000000    -1.549000000
O     2.713000000    -1.773000000    -7.920000000
H     2.820000000    -2.555000000    -8.462000000
H     2.161000000    -2.059000000    -7.192000000
O     3.782000000     2.190000000    -0.084000000
H     4.663000000     2.004000000    -0.408000000
H     3.213000000     1.607000000    -0.587000000
O     3.138000000    -2.242000000    -5.107000000
H     3.515000000    -3.070000000    -4.809000000
H     2.308000000    -2.173000000    -4.635000000
O    -3.118000000     3.077000000     3.542000000
H    -3.515000000     3.256000000     4.394000000
H    -2.369000000     3.671000000     3.497000000
O     3.854000000    -1.856000000     1.853000000
H     4.684000000    -1.995000000     1.398000000
H     3.306000000    -2.592000000     1.582000000
O    -5.136000000    -1.591000000     0.595000000
H    -4.511000000    -1.133000000     1.157000000
H    -4.590000000    -2.096000000    -0.008000000
O    -1.945000000    -2.638000000     0.576000000
H    -2.678000000    -2.830000000    -0.009000000
H    -1.639000000    -1.774000000     0.301000000
O     3.142000000     0.362000000    -2.740000000
H     2.586000000    -0.412000000    -2.833000000
H     3.753000000     0.307000000    -3.475000000
O    -0.569000000     4.032000000    -3.336000000
H    -0.194000000     4.911000000    -3.378000000
H     0.186000000     3.446000000    -3.402000000
O    -4.209000000    -0.568000000    -1.960000000
H    -4.330000000    -0.462000000    -2.904000000
H    -4.261000000    -1.513000000    -1.817000000
O    -3.117000000    -0.663000000    -4.693000000
H    -3.358000000    -1.569000000    -4.888000000
H    -2.409000000    -0.736000000    -4.054000000
O    -1.138000000     4.709000000     4.782000000
H    -1.167000000     4.988000000     5.697000000
H    -0.431000000     5.227000000     4.396000000
O     0.141000000     2.066000000     6.097000000
H    -0.265000000     2.861000000     5.750000000
H     1.078000000     2.261000000     6.106000000
O    -1.904000000     3.597000000    -0.865000000
H    -1.300000000     2.888000000    -0.644000000
H    -1.584000000     3.931000000    -1.703000000
O    -0.703000000    -2.112000000     4.704000000
H    -1.455000000    -2.305000000     4.144000000
H    -0.512000000    -2.942000000     5.142000000
O     1.621000000    -4.480000000    -6.435000000
H     2.201000000    -4.496000000    -5.673000000
H     1.888000000    -5.237000000    -6.955000000
O     1.417000000    -0.819000000     6.666000000
H     2.211000000    -0.388000000     6.351000000
H     0.753000000    -0.130000000     6.666000000
O    -3.021000000     1.760000000    -6.122000000
H    -2.913000000     0.830000000    -5.923000000
H    -2.978000000     2.193000000    -5.269000000
O    -4.655000000     2.829000000     5.651000000
H    -4.992000000     3.111000000     6.502000000
H    -4.332000000     1.941000000     5.804000000
O     1.947000000    -2.067000000     3.893000000
H     1.073000000    -1.684000000     3.967000000
H     2.416000000    -1.482000000     3.298000000
O    -3.071000000     3.957000000    -4.217000000
H    -2.190000000     3.814000000    -3.872000000
H    -3.599000000     4.164000000    -3.446000000
O     5.876000000    -3.055000000    -2.615000000
H     5.634000000    -2.511000000    -1.865000000
H     5.048000000    -3.430000000    -2.915000000
O    -2.962000000    -2.889000000     3.347000000
H    -2.653000000    -2.928000000     2.442000000
H    -3.181000000    -3.795000000     3.565000000
O     5.176000000    -0.321000000     4.128000000
H     5.534000000    -1.080000000     4.588000000
H     4.726000000    -0.691000000     3.369000000
O    -1.315000000     5.949000000     0.792000000
H    -1.701000000     5.224000000     0.299000000
H    -2.015000000     6.600000000     0.846000000
O     3.787000000    -3.720000000     4.819000000
H     3.085000000    -3.198000000     4.430000000
H     4.025000000    -3.246000000     5.616000000
O    -4.781000000     2.125000000     1.709000000
H    -4.070000000     2.587000000     2.152000000
H    -4.862000000     1.298000000     2.184000000
O     0.554000000     6.117000000     2.539000000
H     1.117000000     5.592000000     1.970000000
H    -0.320000000     6.025000000     2.159000000
O    -2.139000000     0.505000000     6.102000000
H    -1.245000000     0.844000000     6.155000000
H    -2.160000000     0.013000000     5.281000000
O     3.037000000    -3.627000000    -1.952000000
H     2.449000000    -4.359000000    -2.137000000
H     2.577000000    -2.859000000    -2.292000000
O     5.899000000    -1.286000000    -0.440000000
H     5.889000000    -0.330000000    -0.479000000
H     6.408000000    -1.488000000     0.345000000
O     4.718000000     0.223000000    -4.819000000
H     4.600000000    -0.713000000    -4.978000000
H     4.572000000     0.631000000    -5.673000000
O     4.221000000     2.326000000     3.142000000
H     3.968000000     1.900000000     2.323000000
H     4.446000000     1.604000000     3.728000000
O     0.041000000     0.590000000    -6.758000000
H    -0.684000000     0.541000000    -7.381000000
H    -0.024000000    -0.218000000    -6.250000000
O     1.237000000    -5.802000000    -2.406000000
H     1.540000000    -6.671000000    -2.142000000
H     0.323000000    -5.771000000    -2.123000000
O    -3.856000000    -3.304000000    -1.288000000
H    -4.665000000    -3.628000000    -1.685000000
H    -3.161000000    -3.640000000    -1.854000000
O     1.738000000     2.621000000    -3.064000000
H     2.231000000     1.801000000    -3.019000000
H     2.237000000     3.231000000    -2.521000000
