144
-2838.30530
O    -0.853000000    -4.408000000    -1.660000000
H    -1.366000000    -4.989000000    -2.222000000
H    -0.841000000    -3.572000000    -2.126000000
O    -3.546000000    -0.514000000     5.214000000
H    -2.807000000    -0.409000000     5.814000000
H    -3.149000000    -0.806000000     4.394000000
O     1.909000000     1.053000000    -6.856000000
H     2.213000000     1.500000000    -6.066000000
H     1.514000000     0.242000000    -6.534000000
O     3.227000000     3.694000000     1.492000000
H     2.800000000     4.539000000     1.352000000
H     3.423000000     3.377000000     0.611000000
O     1.035000000    -3.743000000     2.430000000
H     0.085000000    -3.859000000     2.434000000
H     1.318000000    -4.110000000     1.592000000
O    -0.438000000    -6.822000000    -3.735000000
H    -0.398000000    -7.778000000    -3.767000000
H    -1.315000000    -6.631000000    -3.400000000
O     1.106000000     2.542000000    -1.954000000
H     1.768000000     2.345000000    -1.291000000
H     0.275000000     2.312000000    -1.538000000
O    -3.971000000     1.003000000    -1.537000000
H    -3.467000000     0.193000000    -1.455000000
H    -4.169000000     1.255000000    -0.635000000
O    -4.233000000     3.482000000    -2.883000000
H    -4.670000000     3.372000000    -3.727000000
H    -4.140000000     2.592000000    -2.543000000
O     3.887000000     2.263000000    -0.876000000
H     4.831000000     2.137000000    -0.790000000
H     3.531000000     1.377000000    -0.940000000
O    -2.228000000     3.106000000    -5.625000000
H    -1.490000000     3.613000000    -5.288000000
H    -3.003000000     3.571000000    -5.308000000
O     0.630000000     5.701000000    -1.372000000
H     1.556000000     5.844000000    -1.566000000
H     0.376000000     4.971000000    -1.937000000
O     1.824000000     6.084000000     1.210000000
H     1.059000000     6.324000000     1.732000000
H     1.460000000     5.696000000     0.415000000
O    -3.701000000     3.392000000     3.096000000
H    -2.963000000     3.291000000     3.697000000
H    -4.459000000     3.523000000     3.667000000
O    -3.529000000    -1.593000000    -0.444000000
H    -4.464000000    -1.673000000    -0.257000000
H    -3.099000000    -1.823000000     0.380000000
O     1.589000000    -3.291000000     5.145000000
H     1.939000000    -2.406000000     5.042000000
H     1.337000000    -3.553000000     4.260000000
O     5.039000000     0.901000000    -3.932000000
H     5.083000000     0.217000000    -4.600000000
H     5.668000000     1.561000000    -4.223000000
O     3.872000000    -0.377000000    -1.693000000
H     3.308000000    -1.020000000    -2.123000000
H     4.287000000     0.097000000    -2.414000000
O     0.139000000     4.084000000    -4.340000000
H     0.890000000     4.255000000    -4.909000000
H     0.497000000     3.563000000    -3.621000000
O    -4.846000000    -1.924000000    -2.990000000
H    -4.155000000    -2.076000000    -3.635000000
H    -4.414000000    -1.445000000    -2.283000000
O     4.974000000     1.173000000     5.244000000
H     4.934000000     0.223000000     5.141000000
H     4.643000000     1.519000000     4.415000000
O     5.940000000    -4.744000000    -0.802000000
H     5.949000000    -4.855000000     0.148000000
H     5.035000000    -4.511000000    -1.008000000
O    -2.963000000    -1.987000000    -4.795000000
H    -2.398000000    -2.730000000    -5.009000000
H    -2.395000000    -1.385000000    -4.314000000
O     0.633000000     4.223000000     5.829000000
H     1.181000000     4.317000000     5.049000000
H     0.577000000     5.108000000     6.190000000
O     0.714000000     0.996000000     5.941000000
H     0.251000000     1.676000000     5.451000000
H     1.349000000     1.474000000     6.474000000
O    -2.800000000     5.185000000    -1.479000000
H    -3.162000000     4.547000000    -2.094000000
H    -2.496000000     5.905000000    -2.032000000
O    -1.861000000    -4.517000000    -5.680000000
H    -1.876000000    -5.396000000    -6.059000000
H    -1.946000000    -3.930000000    -6.432000000
O    -2.223000000     2.907000000     5.662000000
H    -1.523000000     3.555000000     5.580000000
H    -2.523000000     2.992000000     6.567000000
O     4.280000000    -5.363000000    -5.081000000
H     3.740000000    -5.873000000    -4.478000000
H     4.151000000    -4.455000000    -4.808000000
O     2.468000000    -0.850000000     4.769000000
H     1.791000000    -0.348000000     5.223000000
H     2.821000000    -0.242000000     4.119000000
O     1.221000000    -5.217000000    -0.229000000
H     1.413000000    -6.155000000    -0.237000000
H     0.469000000    -5.121000000    -0.812000000
O     2.258000000    -3.185000000    -6.181000000
H     2.494000000    -3.163000000    -5.253000000
H     2.048000000    -4.102000000    -6.353000000
O    -2.063000000    -1.814000000     3.199000000
H    -1.626000000    -2.655000000     3.068000000
H    -1.357000000    -1.210000000     3.429000000
O     5.470000000    -1.585000000     3.747000000
H     5.275000000    -2.385000000     4.236000000
H     5.015000000    -1.699000000     2.912000000
O    -1.585000000     4.320000000     1.285000000
H    -1.788000000     4.372000000     0.351000000
H    -2.438000000     4.230000000     1.710000000
O     4.180000000    -2.713000000    -3.752000000
H     4.802000000    -2.780000000    -3.028000000
H     3.320000000    -2.726000000    -3.331000000
O    -4.629000000     1.585000000     1.349000000
H    -4.316000000     2.269000000     1.941000000
H    -4.962000000     0.901000000     1.929000000
O    -0.182000000     6.010000000     3.031000000
H    -0.636000000     6.323000000     3.814000000
H    -0.707000000     5.269000000     2.729000000
O    -1.255000000    -0.698000000     6.622000000
H    -0.358000000    -0.384000000     6.506000000
H    -1.155000000    -1.566000000     7.014000000
O     3.258000000    -3.544000000    -0.729000000
H     2.594000000    -4.223000000    -0.604000000
H     2.832000000    -2.892000000    -1.286000000
O    -1.608000000     0.328000000    -6.480000000
H    -1.554000000     1.143000000    -5.981000000
H    -1.019000000    -0.272000000    -6.022000000
O     4.027000000    -1.319000000     1.169000000
H     4.112000000    -1.112000000     0.238000000
H     3.607000000    -2.179000000     1.186000000
O     5.256000000    -0.942000000    -5.846000000
H     4.848000000    -1.599000000    -5.282000000
H     5.897000000    -1.433000000    -6.361000000
O     3.917000000     1.530000000     2.683000000
H     4.016000000     0.776000000     2.102000000
H     3.543000000     2.214000000     2.128000000
O    -3.007000000    -5.569000000    -3.325000000
H    -3.720000000    -5.131000000    -2.859000000
H    -2.838000000    -5.011000000    -4.083000000
O     0.541000000    -1.112000000    -5.542000000
H     0.341000000    -1.437000000    -4.664000000
H     1.067000000    -1.806000000    -5.940000000
O     1.326000000    -4.606000000    -3.744000000
H     0.593000000    -5.208000000    -3.623000000
H     1.147000000    -3.885000000    -3.140000000
O     2.573000000     2.403000000    -4.382000000
H     2.239000000     2.606000000    -3.509000000
H     3.493000000     2.179000000    -4.241000000
