144
-2816.74344
O    -4.438000000     5.003000000     0.416000000
H    -4.474000000     4.499000000     1.228000000
H    -4.411000000     4.342000000    -0.276000000
O     6.208000000     2.565000000     4.344000000
H     5.294000000     2.694000000     4.091000000
H     6.525000000     1.879000000     3.757000000
O     4.401000000     0.057000000    -0.480000000
H     4.593000000     0.834000000     0.046000000
H     3.622000000     0.296000000    -0.984000000
O    -2.237000000     3.854000000     5.553000000
H    -2.830000000     3.454000000     4.917000000
H    -2.614000000     4.717000000     5.721000000
O     3.342000000     2.960000000     4.873000000
H     3.029000000     3.273000000     5.722000000
H     2.550000000     2.685000000     4.412000000
O    -1.215000000    -0.207000000     4.648000000
H    -1.144000000    -0.209000000     3.694000000
H    -1.459000000    -1.105000000     4.872000000
O    -2.433000000    -5.504000000    -3.140000000
H    -1.965000000    -4.972000000    -3.784000000
H    -2.072000000    -5.232000000    -2.296000000
O     4.006000000    -0.734000000     5.267000000
H     4.690000000    -0.172000000     5.632000000
H     3.219000000    -0.504000000     5.759000000
O    -1.045000000    -3.334000000    -5.366000000
H    -1.213000000    -2.709000000    -6.071000000
H    -1.172000000    -2.829000000    -4.563000000
O    -6.649000000     1.460000000    -3.469000000
H    -7.438000000     0.984000000    -3.732000000
H    -6.020000000     0.774000000    -3.244000000
O     2.159000000     3.732000000    -0.777000000
H     1.960000000     4.265000000    -0.007000000
H     2.679000000     4.308000000    -1.338000000
O    -1.236000000    -4.749000000    -0.549000000
H    -1.150000000    -3.912000000    -1.007000000
H    -1.340000000    -4.508000000     0.371000000
O    -1.651000000     4.948000000    -0.444000000
H    -2.476000000     4.915000000     0.041000000
H    -1.011000000     5.265000000     0.193000000
O    -4.335000000     3.795000000     2.863000000
H    -4.972000000     3.758000000     3.577000000
H    -3.775000000     3.030000000     3.002000000
O    -1.498000000    -3.838000000     1.990000000
H    -1.392000000    -4.458000000     2.711000000
H    -2.309000000    -3.372000000     2.192000000
O     4.501000000    -3.496000000    -2.013000000
H     4.705000000    -3.401000000    -1.082000000
H     4.444000000    -4.442000000    -2.150000000
O    -4.258000000     0.298000000    -3.550000000
H    -3.900000000     1.051000000    -4.021000000
H    -3.522000000    -0.311000000    -3.478000000
O     4.510000000     2.681000000     0.370000000
H     4.977000000     3.451000000     0.694000000
H     3.640000000     3.008000000     0.140000000
O    -1.612000000    -0.419000000    -5.317000000
H    -1.860000000    -0.553000000    -4.402000000
H    -0.890000000     0.209000000    -5.280000000
O     5.576000000    -1.944000000     0.861000000
H     5.265000000    -1.256000000     0.272000000
H     4.960000000    -1.928000000     1.594000000
O    -4.462000000    -2.713000000    -1.110000000
H    -4.422000000    -3.559000000    -1.556000000
H    -4.144000000    -2.085000000    -1.759000000
O    -2.206000000    -7.606000000    -0.470000000
H    -1.468000000    -7.000000000    -0.545000000
H    -2.944000000    -7.054000000    -0.212000000
O     2.285000000     0.872000000    -1.937000000
H     1.378000000     0.654000000    -1.721000000
H     2.425000000     1.733000000    -1.543000000
O     2.543000000     5.789000000     1.254000000
H     2.035000000     6.596000000     1.333000000
H     2.880000000     5.629000000     2.136000000
O    -2.855000000     2.544000000    -5.119000000
H    -2.262000000     2.620000000    -4.372000000
H    -3.017000000     3.448000000    -5.390000000
O     0.828000000    -2.769000000     3.126000000
H     0.229000000    -3.120000000     2.468000000
H     0.741000000    -1.819000000     3.047000000
O     0.780000000    -7.105000000    -0.796000000
H     0.710000000    -6.417000000    -1.457000000
H     0.754000000    -7.921000000    -1.296000000
O    -0.657000000     6.779000000     1.779000000
H    -1.323000000     7.460000000     1.871000000
H    -0.463000000     6.511000000     2.678000000
O    -5.119000000    -4.516000000    -3.392000000
H    -4.181000000    -4.672000000    -3.283000000
H    -5.172000000    -3.652000000    -3.800000000
O     0.545000000     3.506000000     5.549000000
H     0.609000000     3.078000000     6.402000000
H    -0.389000000     3.687000000     5.441000000
O     2.963000000     5.603000000     4.042000000
H     3.365000000     6.245000000     4.627000000
H     3.396000000     4.778000000     4.258000000
O     1.430000000     0.155000000     5.937000000
H     0.536000000     0.420000000     5.720000000
H     1.802000000     0.914000000     6.388000000
O    -2.217000000    -0.938000000     1.996000000
H    -1.755000000    -1.124000000     1.179000000
H    -2.981000000    -0.427000000     1.728000000
O     3.369000000    -4.857000000     3.230000000
H     2.596000000    -4.971000000     2.677000000
H     3.550000000    -3.917000000     3.199000000
O    -6.412000000    -2.049000000    -4.339000000
H    -5.849000000    -1.359000000    -4.688000000
H    -6.547000000    -1.808000000    -3.422000000
O     0.580000000    -4.109000000     5.615000000
H     1.065000000    -3.856000000     4.830000000
H    -0.186000000    -3.534000000     5.619000000
O    -4.404000000     2.376000000    -0.958000000
H    -5.044000000     1.667000000    -1.026000000
H    -4.190000000     2.592000000    -1.865000000
O    -0.832000000     3.132000000    -3.113000000
H    -0.976000000     3.455000000    -2.223000000
H    -0.601000000     3.912000000    -3.617000000
O    -4.583000000    -1.173000000    -6.887000000
H    -4.577000000    -2.115000000    -7.057000000
H    -3.672000000    -0.903000000    -7.006000000
O     0.729000000    -5.006000000    -2.968000000
H     1.298000000    -4.343000000    -3.360000000
H    -0.017000000    -4.511000000    -2.630000000
O     1.320000000    -5.738000000     1.644000000
H     1.014000000    -5.953000000     0.763000000
H     0.532000000    -5.770000000     2.186000000
O     3.434000000    -2.070000000     2.933000000
H     3.768000000    -1.438000000     3.569000000
H     2.519000000    -2.202000000     3.184000000
O     2.657000000    -1.431000000    -3.610000000
H     2.978000000    -0.837000000    -2.931000000
H     3.074000000    -2.269000000    -3.411000000
O    -1.756000000    -1.520000000    -7.615000000
H    -1.123000000    -1.209000000    -8.263000000
H    -1.566000000    -1.006000000    -6.830000000
O     0.251000000     1.520000000    -5.289000000
H     1.155000000     1.745000000    -5.070000000
H    -0.263000000     1.844000000    -4.549000000
O    -3.993000000    -4.211000000    -6.466000000
H    -4.239000000    -5.122000000    -6.627000000
H    -3.119000000    -4.265000000    -6.079000000
O    -2.955000000     1.567000000     3.498000000
H    -3.585000000     0.915000000     3.192000000
H    -2.346000000     1.073000000     4.047000000
O    -0.349000000     6.106000000     4.435000000
H     0.404000000     5.569000000     4.684000000
H    -1.103000000     5.645000000     4.802000000
