144
-2807.03231
O    -0.011000000    -6.022000000    -3.567000000
H     0.720000000    -5.425000000    -3.409000000
H    -0.684000000    -5.746000000    -2.945000000
O    -2.650000000     2.070000000    -7.203000000
H    -2.332000000     1.267000000    -6.790000000
H    -1.889000000     2.650000000    -7.217000000
O     3.890000000     0.602000000     4.319000000
H     4.111000000     1.342000000     4.885000000
H     3.773000000    -0.133000000     4.920000000
O     4.118000000     1.604000000     1.460000000
H     3.471000000     2.309000000     1.410000000
H     4.208000000     1.428000000     2.396000000
O    -2.389000000     5.243000000     6.194000000
H    -2.111000000     4.724000000     6.948000000
H    -2.351000000     4.634000000     5.457000000
O    -1.701000000    -2.858000000     6.020000000
H    -1.515000000    -2.533000000     5.139000000
H    -1.727000000    -3.810000000     5.922000000
O    -2.310000000    -4.787000000    -1.943000000
H    -2.376000000    -3.890000000    -2.270000000
H    -1.606000000    -4.754000000    -1.295000000
O    -1.838000000    -2.924000000    -4.168000000
H    -2.608000000    -2.357000000    -4.130000000
H    -1.095000000    -2.322000000    -4.135000000
O     3.920000000    -1.562000000     0.809000000
H     3.840000000    -0.613000000     0.898000000
H     3.119000000    -1.908000000     1.201000000
O     0.891000000     6.472000000     0.989000000
H     0.389000000     6.161000000     0.235000000
H     0.409000000     6.147000000     1.749000000
O    -0.052000000    -5.068000000    -0.307000000
H     0.714000000    -5.627000000    -0.176000000
H     0.056000000    -4.361000000     0.330000000
O    -2.297000000     3.846000000     3.824000000
H    -3.016000000     4.264000000     3.349000000
H    -2.528000000     2.917000000     3.837000000
O    -0.352000000    -4.070000000     2.699000000
H    -1.203000000    -3.658000000     2.547000000
H    -0.540000000    -5.009000000     2.711000000
O     3.450000000    -3.621000000    -1.588000000
H     3.709000000    -2.965000000    -0.941000000
H     3.458000000    -4.448000000    -1.106000000
O    -2.858000000     1.589000000    -3.029000000
H    -2.998000000     2.511000000    -3.246000000
H    -1.906000000     1.493000000    -2.994000000
O     2.301000000     3.733000000     1.179000000
H     2.903000000     4.407000000     1.495000000
H     1.505000000     3.861000000     1.696000000
O     0.332000000     2.983000000    -4.979000000
H    -0.055000000     2.175000000    -4.641000000
H     0.268000000     2.900000000    -5.930000000
O     0.366000000    -0.649000000    -7.568000000
H    -0.217000000    -0.101000000    -7.044000000
H     1.217000000    -0.574000000    -7.137000000
O    -3.395000000    -0.760000000     1.311000000
H    -3.563000000    -0.191000000     0.560000000
H    -3.510000000    -0.192000000     2.073000000
O     2.847000000     0.524000000    -1.885000000
H     3.067000000     1.430000000    -1.668000000
H     2.058000000     0.340000000    -1.376000000
O     3.116000000    -6.080000000    -3.572000000
H     3.099000000    -6.109000000    -4.528000000
H     2.765000000    -5.218000000    -3.352000000
O     2.786000000    -3.169000000     7.433000000
H     2.561000000    -2.430000000     7.999000000
H     2.714000000    -2.821000000     6.544000000
O     0.096000000     2.425000000    -7.773000000
H    -0.015000000     3.200000000    -8.324000000
H     0.825000000     1.950000000    -8.173000000
O    -3.289000000     3.507000000     0.226000000
H    -3.043000000     4.359000000    -0.136000000
H    -3.676000000     3.712000000     1.077000000
O     1.588000000     3.509000000    -1.472000000
H     0.741000000     3.956000000    -1.503000000
H     1.846000000     3.550000000    -0.552000000
O     2.025000000    -0.731000000    -5.552000000
H     1.978000000     0.181000000    -5.265000000
H     1.428000000    -1.197000000    -4.967000000
O     2.286000000    -3.665000000     1.931000000
H     2.748000000    -4.495000000     1.810000000
H     1.454000000    -3.910000000     2.336000000
O    -3.860000000    -1.167000000    -3.205000000
H    -3.314000000    -0.655000000    -2.610000000
H    -4.647000000    -0.636000000    -3.326000000
O     0.301000000     5.637000000    -3.833000000
H     0.354000000     4.702000000    -4.031000000
H     1.057000000     6.020000000    -4.279000000
O     1.163000000     0.606000000     6.543000000
H     1.040000000     0.340000000     7.454000000
H     1.437000000    -0.194000000     6.095000000
O    -2.840000000    -3.076000000     2.628000000
H    -2.952000000    -2.290000000     2.093000000
H    -3.271000000    -2.864000000     3.457000000
O     3.679000000     5.601000000    -2.236000000
H     2.984000000     5.008000000    -1.951000000
H     4.127000000     5.126000000    -2.937000000
O     2.657000000    -6.246000000     1.196000000
H     2.096000000    -6.666000000     0.544000000
H     3.533000000    -6.276000000     0.813000000
O    -4.174000000     0.886000000    -0.762000000
H    -3.893000000     0.916000000    -1.677000000
H    -3.724000000     1.622000000    -0.349000000
O     0.296000000    -4.425000000    -6.401000000
H    -0.214000000    -3.673000000    -6.703000000
H     0.305000000    -4.341000000    -5.448000000
O    -5.558000000     0.924000000    -4.383000000
H    -4.842000000     1.495000000    -4.103000000
H    -5.594000000     1.034000000    -5.334000000
O     3.167000000     2.108000000    -5.277000000
H     2.255000000     2.202000000    -5.003000000
H     3.121000000     1.966000000    -6.222000000
O    -0.625000000     5.442000000    -1.185000000
H    -0.532000000     5.668000000    -2.110000000
H    -1.462000000     5.829000000    -0.927000000
O    -3.254000000    -2.153000000    -7.649000000
H    -3.756000000    -2.753000000    -7.098000000
H    -3.133000000    -1.374000000    -7.107000000
O     1.372000000    -3.461000000    -3.329000000
H     1.997000000    -3.353000000    -2.612000000
H     0.919000000    -2.619000000    -3.380000000
O     2.390000000    -2.099000000     4.721000000
H     3.027000000    -2.801000000     4.588000000
H     1.805000000    -2.159000000     3.967000000
O     5.401000000    -0.386000000    -2.252000000
H     4.532000000    -0.210000000    -1.891000000
H     5.236000000    -0.656000000    -3.155000000
O    -2.221000000    -0.419000000    -5.483000000
H    -2.862000000    -0.637000000    -4.806000000
H    -1.437000000    -0.161000000    -4.998000000
O     3.201000000    -2.199000000    -7.525000000
H     2.832000000    -1.974000000    -6.671000000
H     2.940000000    -3.109000000    -7.666000000
O    -3.457000000     4.178000000    -4.117000000
H    -3.220000000     5.104000000    -4.078000000
H    -4.265000000     4.158000000    -4.630000000
O    -3.220000000     0.590000000     4.211000000
H    -3.278000000     0.220000000     5.092000000
H    -4.086000000     0.965000000     4.050000000
O     0.154000000     4.688000000     3.257000000
H     0.566000000     4.877000000     4.099000000
H    -0.720000000     4.370000000     3.484000000
O    -2.657000000    -5.337000000    -5.226000000
H    -2.404000000    -4.563000000    -4.721000000
H    -1.842000000    -5.825000000    -5.341000000
