144
-2839.76093
O     3.384000000    -6.189000000    -2.141000000
H     3.641000000    -6.264000000    -3.060000000
H     3.662000000    -5.309000000    -1.886000000
O    -0.054000000    -0.214000000    -8.296000000
H    -0.899000000    -0.660000000    -8.357000000
H    -0.249000000     0.607000000    -7.843000000
O     2.772000000    -0.839000000     4.090000000
H     2.000000000    -1.344000000     3.837000000
H     2.615000000    -0.604000000     5.005000000
O    -3.621000000    -0.176000000     4.430000000
H    -4.564000000    -0.303000000     4.527000000
H    -3.455000000    -0.312000000     3.497000000
O     1.010000000    -4.430000000    -4.111000000
H     1.301000000    -3.563000000    -3.827000000
H     0.325000000    -4.253000000    -4.756000000
O     1.080000000     3.989000000     4.707000000
H     0.962000000     4.927000000     4.560000000
H     0.209000000     3.672000000     4.945000000
O     1.774000000    -5.972000000     0.069000000
H     2.368000000    -6.103000000    -0.670000000
H     1.679000000    -6.842000000     0.458000000
O     1.505000000     2.559000000    -0.738000000
H     1.713000000     2.793000000     0.167000000
H     0.847000000     1.868000000    -0.661000000
O    -0.919000000    -5.504000000    -0.874000000
H    -1.337000000    -4.875000000    -1.461000000
H     0.009000000    -5.272000000    -0.896000000
O    -4.251000000     4.314000000     2.405000000
H    -4.359000000     3.765000000     1.628000000
H    -4.604000000     3.788000000     3.122000000
O    -1.480000000    -3.824000000     2.013000000
H    -2.313000000    -3.943000000     2.471000000
H    -1.415000000    -4.583000000     1.434000000
O     5.702000000    -2.278000000     0.757000000
H     6.309000000    -2.792000000     1.290000000
H     4.862000000    -2.353000000     1.210000000
O    -3.366000000     2.210000000    -4.483000000
H    -3.367000000     3.150000000    -4.306000000
H    -2.447000000     1.952000000    -4.409000000
O    -2.634000000    -1.195000000    -5.233000000
H    -1.915000000    -1.105000000    -4.608000000
H    -3.421000000    -1.008000000    -4.721000000
O    -1.490000000     4.530000000     2.561000000
H    -1.301000000     4.334000000     3.478000000
H    -2.441000000     4.447000000     2.490000000
O     0.041000000     2.093000000    -6.956000000
H    -0.327000000     1.828000000    -6.113000000
H    -0.007000000     3.049000000    -6.949000000
O    -3.661000000    -1.865000000    -1.147000000
H    -3.219000000    -1.023000000    -1.256000000
H    -3.212000000    -2.452000000    -1.756000000
O     3.479000000     1.796000000    -3.549000000
H     4.107000000     1.441000000    -2.920000000
H     2.863000000     2.297000000    -3.015000000
O     6.311000000    -1.995000000    -4.425000000
H     6.123000000    -1.760000000    -3.516000000
H     5.515000000    -1.763000000    -4.902000000
O     1.102000000    -0.989000000     6.310000000
H     1.309000000    -1.641000000     6.979000000
H     0.160000000    -1.082000000     6.168000000
O     1.707000000     3.272000000     1.815000000
H     2.231000000     4.059000000     1.961000000
H     1.286000000     3.104000000     2.659000000
O    -0.683000000     1.735000000    -4.248000000
H     0.028000000     2.301000000    -3.947000000
H    -0.379000000     0.847000000    -4.060000000
O    -2.254000000     4.569000000    -2.462000000
H    -2.671000000     5.307000000    -2.019000000
H    -2.282000000     4.799000000    -3.391000000
O     3.207000000    -0.956000000    -4.795000000
H     2.558000000    -1.283000000    -4.172000000
H     3.396000000    -0.066000000    -4.500000000
O     2.484000000    -3.903000000     1.696000000
H     2.089000000    -4.511000000     1.072000000
H     1.775000000    -3.689000000     2.303000000
O    -1.964000000    -3.631000000    -2.648000000
H    -2.078000000    -4.107000000    -3.471000000
H    -1.320000000    -2.952000000    -2.851000000
O     3.746000000     3.154000000     5.119000000
H     3.740000000     2.197000000     5.139000000
H     2.827000000     3.397000000     5.010000000
O     3.543000000     1.045000000     2.416000000
H     3.191000000     0.349000000     2.970000000
H     2.781000000     1.388000000     1.950000000
O    -3.149000000    -0.752000000     1.536000000
H    -3.680000000    -1.181000000     0.864000000
H    -2.259000000    -1.062000000     1.372000000
O    -4.664000000    -0.149000000    -3.790000000
H    -5.436000000     0.193000000    -3.338000000
H    -4.299000000     0.609000000    -4.246000000
O    -2.072000000    -0.515000000     6.759000000
H    -2.665000000    -0.329000000     6.030000000
H    -2.365000000    -1.361000000     7.097000000
O    -1.357000000     2.993000000     5.236000000
H    -1.487000000     2.100000000     4.914000000
H    -2.112000000     3.156000000     5.801000000
O     3.326000000    -2.852000000    -6.623000000
H     3.262000000    -2.134000000    -5.993000000
H     3.487000000    -3.628000000    -6.087000000
O    -4.441000000     1.806000000     1.057000000
H    -3.980000000     0.975000000     1.172000000
H    -4.257000000     2.059000000     0.152000000
O    -3.707000000     2.322000000    -1.502000000
H    -4.206000000     2.352000000    -2.318000000
H    -3.082000000     3.043000000    -1.577000000
O    -0.473000000     6.523000000     0.992000000
H     0.238000000     6.236000000     0.420000000
H    -0.917000000     5.713000000     1.247000000
O    -2.528000000    -1.137000000    -7.859000000
H    -2.508000000    -2.072000000    -8.062000000
H    -2.364000000    -1.092000000    -6.917000000
O     4.374000000    -4.634000000    -4.965000000
H     4.251000000    -4.415000000    -4.041000000
H     5.312000000    -4.514000000    -5.116000000
O     3.699000000    -3.512000000    -2.429000000
H     4.195000000    -2.724000000    -2.207000000
H     2.801000000    -3.203000000    -2.548000000
O     4.212000000    -4.338000000     3.918000000
H     4.945000000    -3.734000000     4.037000000
H     3.882000000    -4.145000000     3.041000000
O     5.729000000    -1.512000000    -1.898000000
H     5.706000000    -0.594000000    -1.629000000
H     5.672000000    -2.003000000    -1.079000000
O     0.609000000     1.853000000     7.274000000
H     0.014000000     2.196000000     6.607000000
H     0.821000000     0.969000000     6.974000000
O    -0.155000000    -3.332000000    -6.295000000
H    -0.568000000    -3.087000000    -7.123000000
H     0.779000000    -3.177000000    -6.438000000
O     0.696000000     3.940000000    -3.051000000
H    -0.057000000     3.765000000    -2.488000000
H     1.451000000     3.892000000    -2.464000000
O    -2.225000000    -4.835000000    -5.111000000
H    -2.453000000    -5.413000000    -5.838000000
H    -1.440000000    -4.374000000    -5.409000000
O     0.662000000    -2.369000000     3.537000000
H    -0.123000000    -2.636000000     3.058000000
H     0.401000000    -2.395000000     4.458000000
O     1.983000000    -6.877000000    -5.290000000
H     1.198000000    -7.278000000    -5.663000000
H     1.664000000    -6.090000000    -4.849000000
O    -5.210000000     2.828000000     4.442000000
H    -6.149000000     2.866000000     4.260000000
H    -5.098000000     2.033000000     4.963000000
