144
-2794.05764
O     0.938000000    -4.957000000    -5.680000000
H     0.481000000    -4.647000000    -6.461000000
H     0.710000000    -5.885000000    -5.620000000
O    -2.558000000     4.030000000    -1.024000000
H    -3.497000000     4.068000000    -0.841000000
H    -2.501000000     3.991000000    -1.979000000
O    -0.104000000     3.871000000     3.966000000
H    -0.971000000     3.687000000     3.604000000
H     0.405000000     4.187000000     3.220000000
O     5.851000000     1.261000000     0.674000000
H     5.541000000     1.502000000    -0.199000000
H     6.107000000     0.343000000     0.592000000
O    -7.735000000     0.701000000    -0.663000000
H    -6.931000000     1.010000000    -1.080000000
H    -8.115000000     0.094000000    -1.297000000
O    -4.932000000    -0.446000000     2.574000000
H    -4.742000000    -0.994000000     1.812000000
H    -5.840000000    -0.171000000     2.451000000
O    -6.113000000     2.374000000    -2.023000000
H    -5.875000000     1.809000000    -2.758000000
H    -6.187000000     3.248000000    -2.407000000
O    -3.493000000     2.312000000     4.795000000
H    -3.967000000     2.793000000     4.117000000
H    -4.155000000     1.748000000     5.196000000
O     3.035000000    -3.301000000    -1.802000000
H     3.344000000    -2.607000000    -2.384000000
H     2.219000000    -3.602000000    -2.201000000
O     0.073000000     6.250000000    -0.691000000
H    -0.789000000     6.660000000    -0.620000000
H     0.578000000     6.848000000    -1.242000000
O     0.698000000    -0.900000000     3.902000000
H     0.236000000    -0.063000000     3.941000000
H     0.064000000    -1.505000000     3.516000000
O     0.578000000    -6.305000000    -1.335000000
H    -0.315000000    -6.011000000    -1.155000000
H     0.863000000    -5.764000000    -2.071000000
O     4.230000000     1.289000000     5.050000000
H     3.287000000     1.145000000     4.975000000
H     4.319000000     1.943000000     5.743000000
O     0.067000000     3.549000000    -2.111000000
H     0.686000000     4.275000000    -2.191000000
H    -0.515000000     3.807000000    -1.396000000
O    -3.597000000    -0.737000000     5.225000000
H    -2.764000000    -0.360000000     4.942000000
H    -4.096000000    -0.847000000     4.415000000
O     4.081000000    -1.419000000    -3.738000000
H     4.718000000    -0.783000000    -3.414000000
H     4.323000000    -1.556000000    -4.654000000
O    -1.545000000    -4.912000000     1.037000000
H    -1.719000000    -4.663000000     0.129000000
H    -2.137000000    -5.646000000     1.201000000
O     4.123000000    -3.366000000     0.623000000
H     3.320000000    -3.447000000     1.137000000
H     3.828000000    -3.390000000    -0.287000000
O     1.323000000     1.300000000    -2.600000000
H     0.761000000     2.039000000    -2.366000000
H     1.279000000     0.717000000    -1.843000000
O     1.585000000    -0.695000000    -4.537000000
H     1.346000000     0.097000000    -4.056000000
H     2.467000000    -0.905000000    -4.230000000
O    -3.453000000    -0.225000000    -4.319000000
H    -3.765000000    -0.551000000    -3.475000000
H    -2.683000000    -0.759000000    -4.513000000
O     1.052000000    -4.399000000     2.131000000
H     0.847000000    -4.375000000     3.066000000
H     0.236000000    -4.146000000     1.700000000
O     5.683000000     3.106000000     3.878000000
H     5.003000000     3.418000000     3.281000000
H     5.368000000     2.252000000     4.174000000
O    -4.150000000    -5.962000000    -3.880000000
H    -4.828000000    -6.498000000    -4.292000000
H    -4.604000000    -5.160000000    -3.620000000
O     0.819000000    -4.197000000    -3.152000000
H     0.959000000    -4.444000000    -4.066000000
H     0.099000000    -3.567000000    -3.182000000
O     1.141000000     5.056000000     1.830000000
H     0.586000000     5.833000000     1.763000000
H     1.478000000     4.925000000     0.944000000
O     6.049000000    -1.398000000     0.200000000
H     6.176000000    -1.519000000    -0.741000000
H     5.405000000    -2.063000000     0.441000000
O    -2.803000000     5.898000000     1.874000000
H    -3.753000000     5.880000000     1.985000000
H    -2.665000000     6.417000000     1.081000000
O    -1.863000000    -7.568000000    -3.234000000
H    -1.604000000    -6.724000000    -2.863000000
H    -2.751000000    -7.424000000    -3.561000000
O     3.898000000     3.979000000     1.831000000
H     3.954000000     3.613000000     0.949000000
H     3.008000000     4.326000000     1.890000000
O    -4.755000000    -3.241000000    -2.760000000
H    -4.134000000    -2.553000000    -2.521000000
H    -4.978000000    -3.057000000    -3.672000000
O     2.459000000     5.901000000     5.213000000
H     1.526000000     5.996000000     5.402000000
H     2.490000000     5.351000000     4.430000000
O     2.900000000     4.572000000    -0.916000000
H     3.740000000     4.248000000    -1.243000000
H     2.664000000     5.276000000    -1.521000000
O     5.452000000     3.298000000    -1.630000000
H     5.810000000     3.841000000    -0.928000000
H     6.086000000     3.379000000    -2.343000000
O    -1.194000000    -2.008000000     2.375000000
H    -1.938000000    -2.558000000     2.129000000
H    -1.017000000    -1.483000000     1.595000000
O    -4.961000000     2.540000000     0.600000000
H    -4.061000000     2.213000000     0.618000000
H    -5.225000000     2.466000000    -0.317000000
O     1.554000000     2.164000000     5.474000000
H     1.036000000     2.843000000     5.042000000
H     1.540000000     2.405000000     6.401000000
O    -5.213000000    -4.539000000    -0.187000000
H    -5.284000000    -4.068000000    -1.017000000
H    -5.695000000    -5.354000000    -0.331000000
O    -0.305000000    -3.067000000    -7.862000000
H    -0.807000000    -2.759000000    -7.108000000
H     0.432000000    -2.460000000    -7.923000000
O     3.880000000    -0.796000000     3.230000000
H     2.999000000    -0.929000000     3.578000000
H     3.967000000     0.154000000     3.155000000
O    -2.264000000    -5.520000000    -5.925000000
H    -2.555000000    -4.868000000    -6.562000000
H    -2.742000000    -5.303000000    -5.124000000
O    -2.035000000    -4.976000000    -1.741000000
H    -1.645000000    -4.160000000    -2.055000000
H    -2.926000000    -4.965000000    -2.089000000
O     3.446000000     2.351000000    -3.817000000
H     4.079000000     2.331000000    -3.099000000
H     2.600000000     2.207000000    -3.393000000
O    -0.946000000    -1.709000000    -5.152000000
H    -0.093000000    -1.285000000    -5.062000000
H    -1.013000000    -2.279000000    -4.386000000
O    -1.066000000     1.103000000     5.438000000
H    -1.922000000     1.517000000     5.329000000
H    -0.447000000     1.732000000     5.065000000
O     5.497000000    -2.533000000     4.339000000
H     4.914000000    -1.981000000     3.817000000
H     5.422000000    -2.187000000     5.228000000
O    -3.979000000    -2.260000000     0.727000000
H    -3.732000000    -1.777000000    -0.062000000
H    -4.534000000    -2.972000000     0.407000000
O     6.192000000    -0.204000000    -2.485000000
H     6.340000000     0.207000000    -3.337000000
H     7.052000000    -0.202000000    -2.065000000
