144
-2803.53444
O    -0.515000000     2.519000000    -5.879000000
H    -0.487000000     2.205000000    -4.975000000
H    -0.614000000     1.726000000    -6.405000000
O     1.703000000     2.072000000    -4.139000000
H     2.223000000     1.268000000    -4.136000000
H     1.052000000     1.940000000    -3.450000000
O     4.099000000    -5.471000000    -1.917000000
H     3.562000000    -6.262000000    -1.866000000
H     3.509000000    -4.763000000    -1.659000000
O    -4.176000000     2.030000000     1.755000000
H    -4.952000000     2.321000000     2.233000000
H    -4.514000000     1.715000000     0.917000000
O    -2.912000000    -3.446000000    -5.203000000
H    -2.912000000    -3.616000000    -4.261000000
H    -3.283000000    -2.567000000    -5.288000000
O     2.983000000    -2.309000000     4.125000000
H     3.651000000    -1.826000000     3.638000000
H     3.372000000    -3.171000000     4.274000000
O     0.601000000    -2.995000000     7.053000000
H     0.148000000    -2.173000000     6.866000000
H     0.835000000    -3.340000000     6.192000000
O    -3.216000000     4.435000000     4.699000000
H    -2.679000000     3.797000000     4.229000000
H    -2.584000000     5.024000000     5.110000000
O     2.937000000    -2.608000000    -5.960000000
H     2.783000000    -3.453000000    -6.382000000
H     2.134000000    -2.436000000    -5.467000000
O     1.733000000    -0.411000000    -7.329000000
H     0.794000000    -0.596000000    -7.300000000
H     2.049000000    -0.642000000    -6.456000000
O     1.402000000     2.956000000     2.536000000
H     1.817000000     3.247000000     1.724000000
H     1.889000000     2.170000000     2.785000000
O    -4.299000000    -1.891000000     1.970000000
H    -3.596000000    -1.651000000     1.367000000
H    -4.651000000    -1.055000000     2.275000000
O     2.107000000    -5.208000000    -3.813000000
H     2.660000000    -5.602000000    -4.488000000
H     2.015000000    -5.892000000    -3.150000000
O     3.304000000    -0.268000000    -1.330000000
H     2.353000000    -0.330000000    -1.240000000
H     3.455000000    -0.266000000    -2.276000000
O     3.326000000     1.311000000     4.287000000
H     4.079000000     0.734000000     4.159000000
H     2.713000000     0.792000000     4.808000000
O     0.766000000    -2.289000000    -4.375000000
H     0.218000000    -1.508000000    -4.293000000
H     0.399000000    -2.905000000    -3.741000000
O    -0.879000000    -0.263000000    -6.467000000
H    -1.722000000     0.095000000    -6.744000000
H    -0.959000000    -0.359000000    -5.518000000
O     2.620000000     4.249000000     0.416000000
H     3.115000000     4.842000000     0.981000000
H     3.214000000     4.056000000    -0.309000000
O     1.615000000     4.822000000    -3.481000000
H     0.706000000     4.657000000    -3.227000000
H     1.998000000     3.950000000    -3.578000000
O    -0.593000000    -4.691000000    -2.595000000
H     0.350000000    -4.729000000    -2.757000000
H    -0.933000000    -5.505000000    -2.967000000
O    -1.423000000     2.766000000     3.771000000
H    -0.757000000     2.790000000     3.083000000
H    -0.924000000     2.692000000     4.584000000
O    -5.665000000     3.527000000    -0.772000000
H    -5.707000000     2.571000000    -0.797000000
H    -5.228000000     3.769000000    -1.589000000
O    -4.771000000     0.728000000    -0.640000000
H    -5.664000000     0.381000000    -0.636000000
H    -4.244000000     0.036000000    -0.239000000
O     0.705000000     5.583000000     3.483000000
H     0.865000000     4.665000000     3.265000000
H     1.022000000     5.675000000     4.382000000
O     2.297000000     3.782000000    -6.291000000
H     2.079000000     3.222000000    -5.545000000
H     2.218000000     3.208000000    -7.053000000
O    -3.106000000    -1.410000000    -0.329000000
H    -2.359000000    -1.883000000     0.038000000
H    -3.093000000    -1.627000000    -1.262000000
O     5.305000000    -0.682000000     3.353000000
H     5.904000000     0.025000000     3.591000000
H     5.651000000    -1.023000000     2.528000000
O    -1.666000000    -4.303000000    -0.110000000
H    -1.275000000    -4.494000000    -0.962000000
H    -2.526000000    -4.722000000    -0.142000000
O    -0.018000000    -4.633000000     1.933000000
H    -0.587000000    -4.282000000     1.248000000
H    -0.541000000    -4.574000000     2.732000000
O     1.485000000    -6.495000000     0.875000000
H     0.991000000    -5.823000000     1.345000000
H     2.018000000    -6.916000000     1.549000000
O    -0.160000000     4.354000000     0.228000000
H    -0.188000000     5.142000000     0.771000000
H     0.766000000     4.115000000     0.200000000
O    -0.647000000    -0.868000000     5.710000000
H    -1.014000000    -0.347000000     6.424000000
H    -1.145000000    -0.600000000     4.938000000
O    -2.174000000    -4.144000000     6.554000000
H    -2.737000000    -3.582000000     6.022000000
H    -1.517000000    -4.474000000     5.941000000
O    -2.885000000     4.224000000     1.249000000
H    -2.032000000     4.165000000     0.818000000
H    -3.186000000     3.317000000     1.308000000
O    -2.367000000     5.224000000    -4.440000000
H    -1.892000000     5.269000000    -3.610000000
H    -1.988000000     4.470000000    -4.892000000
O     1.888000000    -0.534000000     5.778000000
H     0.945000000    -0.670000000     5.684000000
H     2.283000000    -1.209000000     5.226000000
O    -0.430000000     4.775000000    -7.296000000
H     0.182000000     5.225000000    -6.714000000
H    -0.539000000     3.908000000    -6.906000000
O    -4.753000000    -0.868000000    -4.984000000
H    -4.954000000    -0.414000000    -5.802000000
H    -5.547000000    -0.775000000    -4.457000000
O     0.138000000    -4.903000000     4.842000000
H     0.666000000    -4.897000000     4.043000000
H     0.333000000    -5.747000000     5.251000000
O    -3.519000000    -2.082000000     4.752000000
H    -3.992000000    -2.264000000     3.941000000
H    -3.158000000    -1.204000000     4.626000000
O    -3.861000000     2.288000000    -3.223000000
H    -2.946000000     2.111000000    -3.441000000
H    -4.025000000     1.767000000    -2.437000000
O    -0.818000000     4.386000000    -2.448000000
H    -0.645000000     4.438000000    -1.508000000
H    -1.019000000     3.463000000    -2.604000000
O     2.531000000     3.254000000     6.525000000
H     3.180000000     3.687000000     7.080000000
H     3.048000000     2.700000000     5.940000000
O    -0.189000000     2.576000000     6.105000000
H     0.764000000     2.543000000     6.187000000
H    -0.479000000     3.062000000     6.877000000
O     3.329000000    -0.183000000    -3.961000000
H     3.294000000    -0.746000000    -4.734000000
H     3.993000000     0.474000000    -4.171000000
O    -2.592000000     0.322000000     3.928000000
H    -3.525000000     0.467000000     3.773000000
H    -2.183000000     1.164000000     3.729000000
O    -3.068000000    -1.551000000    -3.026000000
H    -3.753000000    -1.380000000    -3.673000000
H    -2.353000000    -0.966000000    -3.275000000
O     4.573000000     1.615000000     0.198000000
H     4.399000000     2.353000000    -0.386000000
H     4.292000000     0.846000000    -0.298000000
