144
-2807.74725
O     0.786000000     2.990000000    -3.982000000
H     1.406000000     3.591000000    -3.569000000
H     0.274000000     3.542000000    -4.572000000
O     1.333000000    -3.819000000    -2.552000000
H     1.264000000    -2.885000000    -2.356000000
H     1.880000000    -3.859000000    -3.337000000
O     5.583000000     2.717000000    -1.225000000
H     5.432000000     2.226000000    -0.417000000
H     5.515000000     3.635000000    -0.963000000
O     2.278000000     6.107000000     1.787000000
H     3.081000000     5.800000000     1.365000000
H     1.597000000     5.982000000     1.126000000
O    -4.713000000    -3.944000000     4.097000000
H    -3.864000000    -3.683000000     4.453000000
H    -4.568000000    -4.006000000     3.153000000
O    -6.344000000     0.918000000    -0.795000000
H    -7.141000000     0.533000000    -1.160000000
H    -6.658000000     1.582000000    -0.181000000
O     4.795000000     1.185000000     0.811000000
H     5.628000000     0.798000000     1.082000000
H     4.595000000     1.825000000     1.493000000
O    -3.636000000    -7.098000000     2.880000000
H    -2.920000000    -6.956000000     3.499000000
H    -3.441000000    -6.512000000     2.149000000
O    -6.864000000    -3.636000000    -0.047000000
H    -6.330000000    -3.738000000     0.740000000
H    -7.465000000    -4.381000000    -0.028000000
O    -0.498000000     6.964000000     2.997000000
H    -0.240000000     6.730000000     2.106000000
H    -1.038000000     7.748000000     2.892000000
O     4.153000000    -0.518000000    -1.360000000
H     4.121000000    -0.010000000    -0.550000000
H     4.994000000    -0.975000000    -1.324000000
O    -1.497000000    -6.087000000     0.293000000
H    -0.735000000    -6.276000000    -0.254000000
H    -1.443000000    -5.146000000     0.463000000
O     5.057000000    -2.177000000     1.318000000
H     4.329000000    -2.270000000     1.933000000
H     5.597000000    -1.479000000     1.690000000
O     1.715000000     6.015000000    -3.043000000
H     1.052000000     5.791000000    -3.696000000
H     1.713000000     6.972000000    -3.019000000
O     3.083000000     0.564000000     4.320000000
H     3.044000000    -0.292000000     3.893000000
H     3.831000000     0.502000000     4.913000000
O    -4.760000000    -6.261000000    -1.540000000
H    -4.459000000    -6.928000000    -0.923000000
H    -3.957000000    -5.849000000    -1.859000000
O     4.345000000     1.213000000    -3.397000000
H     4.842000000     1.898000000    -2.949000000
H     4.405000000     0.455000000    -2.816000000
O     4.139000000     3.295000000     2.731000000
H     4.789000000     3.185000000     3.425000000
H     3.309000000     3.051000000     3.140000000
O     4.354000000     5.607000000    -2.191000000
H     4.410000000     5.615000000    -1.235000000
H     3.434000000     5.417000000    -2.375000000
O    -0.643000000    -8.576000000     1.517000000
H     0.307000000    -8.541000000     1.399000000
H    -0.965000000    -7.778000000     1.098000000
O    -0.980000000    -4.941000000     4.875000000
H    -1.197000000    -4.011000000     4.799000000
H    -0.026000000    -4.970000000     4.803000000
O    -2.974000000     2.173000000     3.935000000
H    -2.400000000     2.819000000     3.522000000
H    -2.388000000     1.642000000     4.475000000
O    -3.099000000    -0.389000000     2.897000000
H    -2.982000000    -0.235000000     1.960000000
H    -3.201000000     0.485000000     3.273000000
O    -0.020000000     6.248000000     0.214000000
H    -0.397000000     5.369000000     0.186000000
H    -0.482000000     6.729000000    -0.472000000
O    -3.953000000    -4.613000000     1.269000000
H    -3.148000000    -4.097000000     1.217000000
H    -4.129000000    -4.874000000     0.365000000
O    -1.591000000    -2.487000000     3.683000000
H    -2.425000000    -2.050000000     3.512000000
H    -1.300000000    -2.794000000     2.825000000
O    -1.588000000     4.081000000     0.136000000
H    -2.442000000     3.711000000    -0.088000000
H    -1.341000000     3.640000000     0.948000000
O     0.850000000    -6.008000000    -0.814000000
H     0.779000000    -6.674000000    -1.498000000
H     1.205000000    -5.241000000    -1.263000000
O     1.538000000     2.789000000     4.651000000
H     2.229000000     2.127000000     4.628000000
H     1.863000000     3.454000000     5.257000000
O     3.672000000    -2.445000000     4.059000000
H     2.935000000    -2.965000000     4.381000000
H     4.290000000    -2.429000000     4.790000000
O     0.863000000    -2.430000000     5.251000000
H     1.106000000    -3.308000000     4.956000000
H     0.210000000    -2.136000000     4.616000000
O    -0.773000000     3.538000000     3.183000000
H     0.034000000     3.259000000     3.615000000
H    -0.710000000     4.493000000     3.149000000
O     0.802000000    -4.546000000     1.545000000
H     1.027000000    -5.013000000     0.740000000
H    -0.076000000    -4.199000000     1.383000000
O     3.421000000    -4.894000000     0.065000000
H     3.474000000    -3.941000000     0.143000000
H     3.762000000    -5.081000000    -0.810000000
O    -3.392000000     2.277000000    -2.658000000
H    -3.472000000     2.841000000    -3.427000000
H    -2.935000000     1.499000000    -2.978000000
O    -2.935000000    -5.454000000    -3.647000000
H    -2.376000000    -4.803000000    -3.222000000
H    -2.355000000    -5.902000000    -4.263000000
O    -5.011000000     4.398000000    -1.470000000
H    -4.492000000     3.593000000    -1.478000000
H    -4.558000000     4.980000000    -2.080000000
O     1.736000000    -1.091000000    -2.338000000
H     2.650000000    -0.903000000    -2.121000000
H     1.234000000    -0.684000000    -1.632000000
O    -3.173000000    -2.732000000    -5.293000000
H    -2.323000000    -3.168000000    -5.345000000
H    -3.224000000    -2.414000000    -4.392000000
O    -5.026000000    -2.847000000    -2.025000000
H    -5.713000000    -3.003000000    -1.377000000
H    -4.239000000    -2.683000000    -1.506000000
O    -4.727000000    -0.768000000     0.507000000
H    -5.111000000    -0.213000000    -0.172000000
H    -4.134000000    -1.351000000     0.033000000
O     0.172000000    -1.589000000    -4.454000000
H    -0.604000000    -1.928000000    -4.008000000
H     0.810000000    -1.453000000    -3.754000000
O    -1.700000000     0.529000000    -3.870000000
H    -0.881000000     0.792000000    -3.451000000
H    -1.496000000     0.508000000    -4.804000000
O     2.509000000     1.186000000    -5.416000000
H     3.171000000     1.099000000    -4.730000000
H     1.732000000     1.510000000    -4.960000000
O     4.673000000     5.142000000     0.724000000
H     4.201000000     4.538000000     1.297000000
H     5.443000000     5.402000000     1.230000000
O    -1.510000000    -3.427000000    -2.856000000
H    -1.947000000    -3.288000000    -2.015000000
H    -0.616000000    -3.675000000    -2.623000000
O     1.759000000    -4.652000000     4.048000000
H     1.619000000    -4.493000000     3.114000000
H     2.531000000    -5.216000000     4.082000000
O    -5.581000000    -4.045000000    -4.404000000
H    -5.595000000    -3.532000000    -3.595000000
H    -4.749000000    -3.817000000    -4.818000000
