144
-2807.92363
O    -5.704000000    -0.747000000    -5.573000000
H    -5.142000000    -0.019000000    -5.837000000
H    -5.707000000    -0.713000000    -4.616000000
O    -2.922000000     3.680000000    -3.475000000
H    -3.124000000     4.532000000    -3.862000000
H    -3.773000000     3.328000000    -3.214000000
O     2.575000000    -3.127000000    -4.414000000
H     2.819000000    -2.349000000    -3.913000000
H     3.405000000    -3.573000000    -4.584000000
O     4.227000000     5.419000000    -0.277000000
H     4.061000000     5.227000000     0.646000000
H     3.422000000     5.158000000    -0.725000000
O     5.367000000     2.236000000    -1.453000000
H     6.289000000     2.122000000    -1.224000000
H     5.155000000     3.122000000    -1.160000000
O    -0.139000000     7.102000000     2.531000000
H    -0.441000000     6.550000000     1.811000000
H    -0.744000000     7.843000000     2.536000000
O    -0.051000000    -3.425000000     2.417000000
H     0.513000000    -2.976000000     1.787000000
H    -0.659000000    -3.929000000     1.877000000
O     2.417000000     3.970000000     4.667000000
H     2.553000000     4.674000000     4.032000000
H     3.121000000     3.346000000     4.487000000
O    -1.156000000     6.044000000    -1.884000000
H    -1.080000000     6.954000000    -2.172000000
H    -1.290000000     5.548000000    -2.692000000
O    -3.005000000    -3.466000000     3.062000000
H    -2.414000000    -2.755000000     3.309000000
H    -3.338000000    -3.213000000     2.202000000
O     2.449000000     6.314000000     2.842000000
H     1.549000000     6.563000000     2.628000000
H     2.973000000     7.075000000     2.594000000
O     4.818000000     2.879000000     4.151000000
H     4.936000000     2.418000000     3.321000000
H     5.324000000     2.368000000     4.783000000
O     5.239000000    -2.912000000    -0.627000000
H     5.215000000    -2.316000000     0.121000000
H     6.047000000    -3.412000000    -0.509000000
O    -2.640000000    -1.945000000    -4.545000000
H    -2.735000000    -1.941000000    -3.593000000
H    -2.018000000    -1.240000000    -4.727000000
O     5.313000000    -0.756000000     3.985000000
H     4.403000000    -1.050000000     4.016000000
H     5.328000000    -0.097000000     3.290000000
O    -6.116000000    -3.614000000     0.199000000
H    -6.310000000    -2.705000000     0.428000000
H    -5.726000000    -3.563000000    -0.674000000
O     4.753000000    -0.590000000    -2.774000000
H     4.957000000     0.294000000    -2.467000000
H     5.336000000    -1.159000000    -2.271000000
O     5.868000000     1.215000000     1.985000000
H     6.204000000     0.757000000     1.214000000
H     6.265000000     2.085000000     1.939000000
O    -2.700000000    -7.225000000    -0.715000000
H    -2.435000000    -7.313000000     0.201000000
H    -1.941000000    -7.527000000    -1.214000000
O     1.682000000     4.956000000    -1.030000000
H     1.015000000     5.151000000    -0.371000000
H     1.322000000     4.220000000    -1.525000000
O     1.710000000    -6.177000000     1.305000000
H     0.796000000    -6.042000000     1.056000000
H     2.213000000    -5.747000000     0.613000000
O    -2.488000000     0.182000000     2.972000000
H    -1.977000000     0.279000000     2.168000000
H    -1.860000000    -0.141000000     3.617000000
O    -5.147000000     0.522000000     3.470000000
H    -5.181000000     1.476000000     3.536000000
H    -4.270000000     0.337000000     3.133000000
O    -0.625000000     5.406000000     0.518000000
H    -1.372000000     5.030000000     0.983000000
H    -1.001000000     5.778000000    -0.279000000
O    -6.597000000    -0.463000000    -0.199000000
H    -7.144000000    -0.476000000     0.586000000
H    -6.001000000     0.274000000    -0.064000000
O    -3.922000000    -1.831000000     0.967000000
H    -3.549000000    -1.990000000     0.100000000
H    -3.857000000    -0.883000000     1.085000000
O    -1.034000000    -5.123000000     0.414000000
H    -1.694000000    -5.667000000    -0.016000000
H    -0.875000000    -4.409000000    -0.203000000
O    -2.800000000     5.058000000     2.049000000
H    -3.747000000     5.174000000     1.979000000
H    -2.678000000     4.568000000     2.862000000
O     2.646000000    -1.708000000     4.090000000
H     2.662000000    -2.226000000     4.895000000
H     2.224000000    -0.887000000     4.343000000
O     4.262000000    -2.999000000     1.938000000
H     3.563000000    -2.762000000     2.548000000
H     3.804000000    -3.349000000     1.173000000
O     0.564000000    -4.352000000     4.814000000
H     1.369000000    -3.968000000     5.161000000
H     0.367000000    -3.831000000     4.036000000
O    -0.682000000    -0.760000000     4.692000000
H    -0.832000000    -0.704000000     5.636000000
H     0.220000000    -0.462000000     4.575000000
O     0.771000000    -4.179000000    -2.391000000
H     1.001000000    -3.706000000    -3.191000000
H    -0.038000000    -3.764000000    -2.092000000
O    -5.098000000    -6.369000000    -1.643000000
H    -4.236000000    -6.692000000    -1.383000000
H    -4.970000000    -5.431000000    -1.787000000
O    -5.159000000     1.694000000    -2.732000000
H    -5.600000000     2.030000000    -3.512000000
H    -5.303000000     0.748000000    -2.764000000
O    -3.896000000     4.234000000    -0.611000000
H    -3.686000000     5.154000000    -0.451000000
H    -3.390000000     4.005000000    -1.391000000
O     1.746000000    -0.718000000    -2.571000000
H     1.734000000    -0.916000000    -1.634000000
H     2.607000000    -0.327000000    -2.721000000
O    -1.224000000     4.072000000     4.098000000
H    -0.785000000     3.223000000     4.051000000
H    -0.551000000     4.671000000     4.422000000
O    -4.724000000     1.591000000     0.020000000
H    -5.157000000     1.947000000    -0.756000000
H    -4.452000000     2.363000000     0.518000000
O    -2.851000000    -4.144000000    -6.271000000
H    -2.627000000    -3.699000000    -7.088000000
H    -2.540000000    -3.555000000    -5.584000000
O    -5.435000000    -0.910000000    -2.687000000
H    -5.944000000    -1.010000000    -1.883000000
H    -4.546000000    -1.166000000    -2.442000000
O     0.023000000    -0.256000000    -4.624000000
H    -0.690000000     0.358000000    -4.452000000
H     0.507000000    -0.298000000    -3.799000000
O    -1.920000000     1.467000000    -4.625000000
H    -2.340000000     2.256000000    -4.283000000
H    -2.525000000     1.143000000    -5.292000000
O     0.349000000     3.056000000    -2.502000000
H     0.023000000     2.456000000    -1.831000000
H    -0.413000000     3.583000000    -2.743000000
O    -4.579000000    -3.738000000    -2.017000000
H    -3.656000000    -3.485000000    -2.050000000
H    -4.937000000    -3.446000000    -2.855000000
O     1.541000000     0.819000000     5.323000000
H     0.947000000     1.426000000     5.765000000
H     2.341000000     0.842000000     5.848000000
O     3.031000000    -4.324000000    -0.645000000
H     2.542000000    -4.203000000    -1.459000000
H     3.812000000    -3.781000000    -0.751000000
O    -5.135000000    -3.619000000    -4.864000000
H    -4.274000000    -3.469000000    -5.253000000
H    -5.544000000    -2.753000000    -4.848000000
