144
-2812.98144
O    -5.257000000    -3.289000000    -4.828000000
H    -5.114000000    -4.189000000    -5.119000000
H    -5.412000000    -2.798000000    -5.635000000
O    -1.312000000     0.739000000    -5.104000000
H    -0.963000000    -0.112000000    -4.840000000
H    -2.250000000     0.588000000    -5.219000000
O     5.601000000     2.733000000     1.643000000
H     5.522000000     1.873000000     2.055000000
H     6.165000000     2.583000000     0.883000000
O    -0.056000000     4.682000000    -2.285000000
H     0.056000000     5.462000000    -2.828000000
H     0.497000000     4.020000000    -2.700000000
O    -2.479000000    -6.675000000    -5.316000000
H    -2.414000000    -6.036000000    -4.606000000
H    -1.732000000    -6.482000000    -5.882000000
O    -6.221000000    -4.846000000     1.309000000
H    -6.054000000    -5.093000000     0.400000000
H    -5.546000000    -4.197000000     1.508000000
O    -6.179000000    -3.977000000    -2.110000000
H    -5.968000000    -3.735000000    -3.011000000
H    -5.329000000    -4.144000000    -1.702000000
O     2.682000000    -0.880000000    -1.133000000
H     2.094000000    -0.493000000    -0.484000000
H     3.529000000    -0.469000000    -0.962000000
O    -2.510000000     1.228000000     0.808000000
H    -2.687000000     0.815000000     1.653000000
H    -1.851000000     0.667000000     0.400000000
O    -0.675000000    -5.216000000     0.721000000
H    -0.330000000    -4.745000000     1.480000000
H    -1.053000000    -4.533000000     0.167000000
O     4.925000000     0.830000000    -2.069000000
H     4.587000000     1.682000000    -1.792000000
H     5.851000000     0.986000000    -2.249000000
O     2.385000000     5.687000000     0.002000000
H     3.123000000     6.086000000    -0.459000000
H     1.611000000     6.077000000    -0.405000000
O     5.754000000     0.137000000     2.596000000
H     6.674000000    -0.108000000     2.501000000
H     5.335000000    -0.643000000     2.959000000
O    -2.280000000    -7.859000000     1.025000000
H    -2.126000000    -8.016000000     1.956000000
H    -1.786000000    -7.062000000     0.832000000
O     1.170000000    -0.500000000     6.856000000
H     1.221000000    -1.441000000     7.024000000
H     1.516000000    -0.396000000     5.969000000
O    -0.780000000    -1.891000000     4.843000000
H    -1.117000000    -1.928000000     5.738000000
H    -0.662000000    -0.957000000     4.670000000
O    -4.381000000     1.813000000    -1.163000000
H    -3.805000000     1.585000000    -0.433000000
H    -5.120000000     2.263000000    -0.754000000
O    -2.394000000     3.977000000     0.722000000
H    -2.562000000     4.226000000    -0.187000000
H    -2.364000000     3.021000000     0.707000000
O    -3.878000000    -5.443000000    -1.178000000
H    -3.453000000    -6.145000000    -1.671000000
H    -3.196000000    -4.781000000    -1.067000000
O    -0.727000000    -2.994000000    -6.661000000
H    -1.635000000    -2.708000000    -6.755000000
H    -0.729000000    -3.903000000    -6.960000000
O    -0.278000000     6.414000000     0.046000000
H    -1.149000000     6.601000000     0.398000000
H    -0.366000000     5.555000000    -0.366000000
O    -4.040000000    -2.902000000     1.344000000
H    -3.690000000    -2.153000000     1.826000000
H    -3.404000000    -3.056000000     0.645000000
O     2.664000000    -3.439000000    -0.532000000
H     2.645000000    -2.495000000    -0.694000000
H     2.812000000    -3.826000000    -1.395000000
O     0.293000000     5.558000000     5.457000000
H     0.551000000     5.509000000     4.536000000
H     1.044000000     5.210000000     5.936000000
O     1.516000000     2.959000000    -3.918000000
H     2.373000000     3.384000000    -3.909000000
H     1.693000000     2.056000000    -3.655000000
O     2.378000000    -3.880000000     4.690000000
H     2.944000000    -4.584000000     5.007000000
H     2.883000000    -3.463000000     3.991000000
O    -2.720000000     4.709000000    -1.941000000
H    -3.242000000     4.495000000    -2.714000000
H    -1.813000000     4.593000000    -2.224000000
O    -4.913000000    -7.637000000     0.369000000
H    -4.848000000    -6.769000000    -0.030000000
H    -4.039000000    -7.803000000     0.725000000
O     1.911000000     0.028000000    -3.578000000
H     1.166000000    -0.553000000    -3.732000000
H     2.248000000    -0.237000000    -2.722000000
O    -0.231000000    -4.281000000     3.574000000
H     0.599000000    -4.464000000     4.014000000
H    -0.529000000    -3.456000000     3.959000000
O     0.833000000    -7.440000000     0.185000000
H     0.525000000    -6.625000000     0.581000000
H     0.761000000    -7.291000000    -0.758000000
O    -0.422000000     3.117000000    -5.739000000
H    -0.859000000     2.299000000    -5.501000000
H     0.078000000     3.357000000    -4.959000000
O     1.046000000     5.499000000     2.803000000
H     0.300000000     5.018000000     2.444000000
H     1.452000000     5.913000000     2.041000000
O     4.021000000     3.199000000    -1.313000000
H     3.418000000     3.848000000    -1.676000000
H     4.669000000     3.716000000    -0.835000000
O    -3.118000000    -0.691000000     2.968000000
H    -3.879000000    -0.162000000     3.209000000
H    -2.387000000    -0.284000000     3.433000000
O     1.326000000    -5.105000000    -4.910000000
H     0.512000000    -4.837000000    -4.484000000
H     2.015000000    -4.815000000    -4.313000000
O    -3.825000000    -1.199000000    -3.835000000
H    -4.259000000    -1.956000000    -4.228000000
H    -3.033000000    -1.558000000    -3.435000000
O    -3.512000000    -5.046000000     3.738000000
H    -2.751000000    -5.582000000     3.514000000
H    -3.468000000    -4.303000000     3.136000000
O    -5.665000000    -0.663000000    -1.782000000
H    -5.255000000     0.180000000    -1.587000000
H    -5.019000000    -1.125000000    -2.316000000
O    -0.227000000    -1.554000000    -4.360000000
H    -0.268000000    -2.220000000    -5.047000000
H    -0.885000000    -1.828000000    -3.721000000
O     4.223000000     4.880000000     2.061000000
H     3.630000000     4.798000000     1.313000000
H     4.820000000     4.136000000     1.976000000
O     2.530000000     3.525000000     4.068000000
H     3.087000000     4.207000000     3.692000000
H     1.683000000     3.644000000     3.639000000
O    -1.328000000     0.824000000     4.473000000
H    -1.574000000     1.133000000     5.345000000
H    -0.707000000     1.478000000     4.154000000
O     3.969000000     1.638000000     5.781000000
H     3.482000000     2.370000000     5.402000000
H     3.949000000     1.801000000     6.725000000
O    -0.983000000     3.424000000     4.335000000
H    -1.829000000     3.485000000     4.777000000
H    -0.392000000     3.948000000     4.876000000
O    -1.101000000    -4.937000000    -3.232000000
H    -1.241000000    -4.115000000    -2.762000000
H    -1.622000000    -5.579000000    -2.750000000
O    -4.784000000     1.402000000    -4.085000000
H    -4.565000000     0.495000000    -3.873000000
H    -4.224000000     1.925000000    -3.511000000
O    -2.308000000    -7.355000000    -2.280000000
H    -1.496000000    -7.705000000    -2.649000000
H    -2.510000000    -7.940000000    -1.549000000
