144
-2788.36743
O    -1.253000000    -3.194000000    -5.623000000
H    -1.730000000    -3.452000000    -6.412000000
H    -1.832000000    -3.442000000    -4.902000000
O     4.177000000     1.549000000     3.784000000
H     3.547000000     0.982000000     4.229000000
H     4.901000000     1.636000000     4.404000000
O    -0.380000000    -0.379000000     3.967000000
H    -0.638000000    -0.778000000     4.798000000
H     0.208000000    -1.020000000     3.567000000
O     6.925000000    -0.064000000     2.016000000
H     6.822000000    -0.778000000     2.646000000
H     6.128000000    -0.095000000     1.487000000
O    -3.013000000     0.388000000     3.802000000
H    -3.395000000    -0.278000000     4.374000000
H    -2.106000000     0.109000000     3.681000000
O    -8.022000000    -1.386000000     0.380000000
H    -8.819000000    -1.556000000    -0.122000000
H    -7.344000000    -1.255000000    -0.283000000
O     2.796000000     6.914000000     0.418000000
H     1.872000000     6.922000000     0.666000000
H     2.928000000     6.055000000     0.017000000
O    -4.084000000    -1.384000000    -3.950000000
H    -4.448000000    -2.104000000    -4.464000000
H    -3.611000000    -1.813000000    -3.237000000
O     5.785000000     4.568000000    -1.012000000
H     5.856000000     5.194000000    -0.291000000
H     6.413000000     3.879000000    -0.793000000
O    -0.510000000    -3.493000000     1.320000000
H    -0.805000000    -2.667000000     1.705000000
H    -0.203000000    -4.008000000     2.066000000
O     4.186000000     4.011000000     2.443000000
H     4.405000000     3.147000000     2.792000000
H     3.833000000     3.834000000     1.571000000
O    -6.168000000    -0.873000000     2.556000000
H    -6.549000000    -0.840000000     3.434000000
H    -6.845000000    -1.279000000     2.015000000
O    -4.699000000     1.361000000     1.881000000
H    -4.016000000     0.994000000     2.442000000
H    -5.346000000     0.659000000     1.802000000
O     3.378000000    -1.947000000    -4.612000000
H     3.031000000    -1.897000000    -5.502000000
H     2.610000000    -2.106000000    -4.064000000
O    -3.629000000     1.650000000    -1.594000000
H    -3.360000000     0.822000000    -1.993000000
H    -3.170000000     1.671000000    -0.755000000
O     4.450000000     2.933000000    -4.177000000
H     5.152000000     3.231000000    -4.756000000
H     4.904000000     2.551000000    -3.427000000
O    -2.333000000    -4.838000000    -0.343000000
H    -2.580000000    -3.997000000    -0.728000000
H    -1.638000000    -4.622000000     0.278000000
O    -5.383000000    -3.250000000    -1.126000000
H    -5.971000000    -2.608000000    -1.524000000
H    -4.513000000    -2.858000000    -1.202000000
O    -0.662000000     4.114000000    -0.676000000
H    -0.301000000     3.367000000    -1.153000000
H    -0.113000000     4.186000000     0.105000000
O     0.127000000     7.075000000     1.112000000
H     0.172000000     7.894000000     1.606000000
H    -0.395000000     6.492000000     1.663000000
O    -6.170000000    -5.335000000     0.330000000
H    -5.838000000    -4.514000000    -0.034000000
H    -6.936000000    -5.541000000    -0.206000000
O    -6.017000000    -0.259000000    -1.382000000
H    -5.536000000    -0.674000000    -2.097000000
H    -6.056000000     0.666000000    -1.624000000
O    -3.734000000    -2.303000000     1.893000000
H    -4.430000000    -1.666000000     2.053000000
H    -3.668000000    -2.351000000     0.940000000
O    -2.534000000    -4.395000000    -3.551000000
H    -2.278000000    -3.640000000    -3.021000000
H    -2.005000000    -5.117000000    -3.212000000
O    -1.654000000    -0.605000000    -6.676000000
H    -1.732000000    -1.500000000    -6.345000000
H    -2.558000000    -0.324000000    -6.819000000
O    -1.509000000     5.504000000     3.388000000
H    -1.657000000     6.016000000     4.183000000
H    -1.731000000     4.607000000     3.636000000
O    -3.904000000    -3.979000000     4.072000000
H    -3.706000000    -3.427000000     3.316000000
H    -4.357000000    -4.737000000     3.704000000
O     2.434000000    -2.502000000     0.687000000
H     3.276000000    -2.281000000     0.289000000
H     1.841000000    -1.812000000     0.392000000
O    -4.100000000    -6.893000000    -0.404000000
H    -4.922000000    -6.436000000    -0.221000000
H    -3.431000000    -6.210000000    -0.357000000
O     2.801000000    -0.298000000     5.243000000
H     2.313000000    -0.857000000     4.638000000
H     3.535000000    -0.840000000     5.532000000
O    -2.302000000     2.539000000    -4.651000000
H    -1.980000000     1.663000000    -4.437000000
H    -3.210000000     2.402000000    -4.919000000
O     2.859000000     4.472000000    -1.140000000
H     2.477000000     4.704000000    -1.986000000
H     3.804000000     4.519000000    -1.283000000
O     4.938000000     0.835000000     0.367000000
H     4.337000000     1.012000000     1.090000000
H     5.314000000     1.690000000     0.154000000
O    -4.818000000    -5.430000000    -5.011000000
H    -4.240000000    -5.028000000    -4.362000000
H    -4.392000000    -6.258000000    -5.230000000
O    -2.864000000     4.350000000    -2.414000000
H    -2.057000000     4.481000000    -1.917000000
H    -2.974000000     3.399000000    -2.445000000
O     5.225000000    -0.051000000    -4.670000000
H     4.559000000    -0.738000000    -4.655000000
H     4.754000000     0.734000000    -4.949000000
O     2.912000000     6.299000000     4.169000000
H     2.815000000     5.839000000     5.003000000
H     3.365000000     5.674000000     3.602000000
O    -5.534000000     3.666000000    -0.424000000
H    -4.710000000     3.470000000    -0.869000000
H    -5.514000000     3.126000000     0.366000000
O     0.025000000     2.254000000    -2.555000000
H    -0.227000000     1.500000000    -3.088000000
H     0.933000000     2.428000000    -2.801000000
O     4.573000000    -1.483000000    -0.681000000
H     5.277000000    -1.598000000    -1.320000000
H     4.841000000    -0.725000000    -0.163000000
O     0.829000000    -3.096000000    -3.432000000
H     0.005000000    -2.717000000    -3.127000000
H     0.594000000    -3.568000000    -4.231000000
O    -0.123000000     0.030000000     7.189000000
H     0.446000000    -0.263000000     7.901000000
H     0.470000000     0.174000000     6.452000000
O     2.566000000     1.976000000     6.886000000
H     2.423000000     1.646000000     7.774000000
H     2.575000000     1.191000000     6.338000000
O    -1.913000000     2.954000000     4.306000000
H    -1.072000000     2.510000000     4.416000000
H    -2.550000000     2.244000000     4.222000000
O     0.740000000    -5.092000000    -1.111000000
H     0.995000000    -4.576000000    -0.347000000
H     0.432000000    -4.445000000    -1.746000000
O    -1.119000000     0.317000000    -4.067000000
H    -0.942000000    -0.021000000    -4.945000000
H    -1.157000000    -0.463000000    -3.513000000
O    -0.718000000     4.737000000     6.397000000
H    -1.355000000     5.450000000     6.342000000
H    -0.866000000     4.223000000     5.604000000
O     1.607000000    -2.004000000     3.422000000
H     1.974000000    -2.053000000     2.539000000
H     1.543000000    -2.916000000     3.706000000
