144
-2796.75832
O    -1.546000000     0.144000000    -5.492000000
H    -2.363000000     0.190000000    -4.995000000
H    -1.458000000     1.012000000    -5.887000000
O    -3.202000000     3.613000000    -0.714000000
H    -4.108000000     3.741000000    -0.433000000
H    -3.125000000     2.669000000    -0.851000000
O     5.120000000    -2.133000000     3.391000000
H     4.339000000    -1.657000000     3.674000000
H     4.781000000    -2.943000000     3.009000000
O    -0.643000000     1.217000000     4.188000000
H    -1.564000000     1.050000000     3.986000000
H    -0.293000000     1.618000000     3.392000000
O    -6.285000000     0.435000000     0.277000000
H    -6.747000000     1.243000000     0.501000000
H    -5.422000000     0.727000000    -0.017000000
O    -2.905000000     4.650000000    -3.897000000
H    -3.371000000     5.400000000    -3.527000000
H    -2.235000000     4.439000000    -3.247000000
O    -3.636000000    -3.618000000    -0.404000000
H    -4.058000000    -3.403000000     0.428000000
H    -3.319000000    -2.778000000    -0.735000000
O     4.151000000     0.803000000    -2.035000000
H     3.792000000     1.508000000    -1.496000000
H     4.109000000     0.028000000    -1.474000000
O    -1.287000000     5.992000000     2.373000000
H    -0.504000000     5.819000000     2.896000000
H    -2.016000000     5.804000000     2.964000000
O    -3.699000000    -5.717000000    -2.048000000
H    -3.627000000    -4.971000000    -1.453000000
H    -4.149000000    -5.366000000    -2.817000000
O     0.380000000     2.337000000     6.455000000
H    -0.060000000     1.960000000     5.693000000
H     0.645000000     1.580000000     6.977000000
O     5.010000000     1.840000000     3.734000000
H     4.774000000     0.969000000     4.052000000
H     5.965000000     1.869000000     3.801000000
O     0.633000000     1.824000000    -2.542000000
H     0.754000000     1.890000000    -1.595000000
H     0.627000000     0.883000000    -2.718000000
O     3.494000000     3.225000000    -1.030000000
H     3.327000000     4.161000000    -1.136000000
H     4.076000000     3.170000000    -0.272000000
O     4.157000000    -4.706000000     2.909000000
H     3.201000000    -4.658000000     2.929000000
H     4.350000000    -5.349000000     2.227000000
O     3.484000000    -0.377000000     4.655000000
H     3.672000000    -0.031000000     5.528000000
H     2.622000000    -0.784000000     4.739000000
O     2.768000000     5.544000000     2.184000000
H     2.212000000     6.245000000     2.525000000
H     2.221000000     5.097000000     1.539000000
O    -2.859000000     1.319000000     2.967000000
H    -3.131000000     1.390000000     2.052000000
H    -3.548000000     1.770000000     3.456000000
O     5.062000000     3.133000000     1.239000000
H     4.541000000     2.675000000     1.899000000
H     5.936000000     3.196000000     1.625000000
O     6.813000000    -3.957000000     0.420000000
H     6.331000000    -3.192000000     0.106000000
H     6.345000000    -4.704000000     0.049000000
O     6.634000000     3.265000000    -1.774000000
H     6.823000000     2.349000000    -1.975000000
H     5.889000000     3.231000000    -1.174000000
O    -0.470000000    -4.925000000     0.928000000
H    -1.258000000    -4.392000000     0.819000000
H    -0.798000000    -5.788000000     1.182000000
O     2.637000000     2.777000000     2.806000000
H     3.349000000     2.319000000     3.254000000
H     2.854000000     3.705000000     2.899000000
O    -4.950000000    -4.163000000    -3.923000000
H    -5.438000000    -3.402000000    -3.610000000
H    -4.036000000    -3.880000000    -3.920000000
O    -5.720000000    -0.489000000    -2.408000000
H    -6.248000000     0.290000000    -2.229000000
H    -4.864000000    -0.290000000    -2.028000000
O     6.398000000    -0.986000000     1.329000000
H     5.839000000    -1.139000000     0.567000000
H     5.950000000    -1.431000000     2.048000000
O    -8.506000000    -1.177000000    -0.425000000
H    -7.810000000    -0.551000000    -0.226000000
H    -8.070000000    -1.871000000    -0.918000000
O     4.956000000    -1.883000000    -0.908000000
H     5.450000000    -1.679000000    -1.702000000
H     4.567000000    -2.740000000    -1.081000000
O    -3.725000000    -0.854000000     4.623000000
H    -3.368000000    -0.129000000     4.111000000
H    -4.587000000    -0.548000000     4.904000000
O     0.852000000    -0.986000000    -3.582000000
H     0.305000000    -1.678000000    -3.953000000
H     0.968000000    -1.237000000    -2.666000000
O    -0.912000000    -6.036000000    -2.543000000
H    -1.836000000    -5.900000000    -2.334000000
H    -0.920000000    -6.430000000    -3.416000000
O    -6.246000000    -2.823000000    -1.034000000
H    -5.505000000    -3.427000000    -0.981000000
H    -5.907000000    -2.071000000    -1.520000000
O    -4.513000000     3.131000000     1.897000000
H    -3.995000000     3.815000000     2.321000000
H    -5.279000000     3.024000000     2.461000000
O     1.549000000     0.883000000    -5.516000000
H     1.264000000     0.407000000    -4.736000000
H     1.051000000     1.700000000    -5.494000000
O    -2.893000000    -2.440000000    -3.693000000
H    -2.802000000    -1.851000000    -4.441000000
H    -2.965000000    -1.858000000    -2.937000000
O    -3.111000000     4.654000000     3.788000000
H    -3.819000000     5.211000000     4.112000000
H    -2.727000000     4.272000000     4.577000000
O     1.475000000    -4.993000000     2.971000000
H     1.143000000    -4.795000000     3.847000000
H     0.721000000    -4.868000000     2.395000000
O     0.146000000    -3.589000000    -4.012000000
H    -0.734000000    -3.966000000    -4.032000000
H     0.725000000    -4.341000000    -3.889000000
O     1.832000000    -5.728000000    -0.725000000
H     1.256000000    -5.327000000    -1.376000000
H     1.368000000    -5.620000000     0.105000000
O     1.510000000     5.403000000    -1.397000000
H     0.643000000     5.123000000    -1.102000000
H     1.384000000     6.306000000    -1.686000000
O    -3.928000000    -3.017000000     2.374000000
H    -3.380000000    -3.755000000     2.643000000
H    -3.439000000    -2.243000000     2.653000000
O    -1.304000000     5.395000000    -0.537000000
H    -1.923000000     4.684000000    -0.702000000
H    -1.365000000     5.552000000     0.405000000
O    -6.474000000     2.422000000    -3.074000000
H    -6.777000000     2.524000000    -3.976000000
H    -6.904000000     3.131000000    -2.596000000
O     4.333000000    -4.643000000    -1.068000000
H     5.026000000    -5.287000000    -0.922000000
H     3.521000000    -5.128000000    -0.918000000
O    -6.167000000    -1.621000000     2.093000000
H    -5.350000000    -2.114000000     2.167000000
H    -6.023000000    -1.031000000     1.353000000
O     3.879000000     2.481000000    -4.442000000
H     2.997000000     2.249000000    -4.731000000
H     4.029000000     1.937000000    -3.669000000
O     0.898000000    -1.359000000     5.145000000
H     0.644000000    -2.265000000     4.968000000
H     0.256000000    -0.832000000     4.669000000
O    -4.399000000     1.119000000    -4.378000000
H    -4.695000000     0.365000000    -3.869000000
H    -4.585000000     1.873000000    -3.818000000
