144
-2827.85628
O     2.414000000     1.896000000    -3.268000000
H     1.792000000     2.316000000    -3.862000000
H     2.481000000     0.997000000    -3.588000000
O    -3.968000000     4.430000000    -4.901000000
H    -4.562000000     3.681000000    -4.847000000
H    -3.544000000     4.461000000    -4.043000000
O    -4.911000000     3.943000000     1.193000000
H    -4.645000000     3.930000000     2.113000000
H    -4.466000000     3.190000000     0.804000000
O     2.884000000    -6.120000000    -0.504000000
H     2.809000000    -7.074000000    -0.539000000
H     2.187000000    -5.847000000     0.092000000
O    -3.450000000    -1.785000000    -0.862000000
H    -3.481000000    -2.029000000    -1.787000000
H    -4.368000000    -1.728000000    -0.599000000
O     2.719000000    -1.883000000     5.133000000
H     2.742000000    -2.733000000     4.694000000
H     3.151000000    -2.035000000     5.973000000
O    -1.468000000     3.407000000     1.982000000
H    -1.936000000     3.658000000     2.778000000
H    -2.087000000     2.853000000     1.505000000
O     0.819000000     0.271000000     6.317000000
H     1.302000000     0.190000000     5.495000000
H     0.701000000     1.213000000     6.434000000
O     7.379000000    -1.124000000    -0.416000000
H     7.313000000    -0.295000000     0.058000000
H     7.191000000    -0.895000000    -1.326000000
O    -0.647000000     5.124000000    -1.450000000
H    -0.409000000     4.511000000    -0.755000000
H     0.097000000     5.102000000    -2.053000000
O     0.971000000     2.965000000    -0.838000000
H     0.740000000     2.036000000    -0.852000000
H     1.480000000     3.097000000    -1.638000000
O     6.159000000    -2.454000000     2.884000000
H     5.613000000    -1.776000000     2.486000000
H     6.517000000    -2.043000000     3.670000000
O    -5.474000000     2.355000000    -1.571000000
H    -5.703000000     1.607000000    -2.123000000
H    -4.544000000     2.235000000    -1.379000000
O     2.042000000     2.505000000     4.823000000
H     1.484000000     2.785000000     5.549000000
H     1.720000000     2.999000000     4.069000000
O     0.608000000     3.183000000    -4.934000000
H     0.085000000     2.413000000    -4.709000000
H     0.269000000     3.461000000    -5.785000000
O     0.287000000    -3.610000000    -1.739000000
H    -0.433000000    -4.225000000    -1.882000000
H     0.124000000    -3.249000000    -0.868000000
O    -1.998000000    -5.012000000     1.532000000
H    -2.614000000    -5.391000000     0.906000000
H    -1.697000000    -4.206000000     1.113000000
O    -1.690000000    -2.806000000     3.893000000
H    -1.650000000    -2.137000000     4.576000000
H    -2.105000000    -2.366000000     3.151000000
O     5.068000000     0.003000000     2.105000000
H     4.536000000     0.201000000     2.876000000
H     4.660000000     0.502000000     1.398000000
O     1.169000000     2.754000000     1.832000000
H     1.124000000     2.818000000     0.878000000
H     0.315000000     3.063000000     2.134000000
O     5.757000000    -3.396000000    -0.400000000
H     5.747000000    -3.818000000     0.459000000
H     6.160000000    -2.542000000    -0.242000000
O     3.154000000    -0.453000000    -5.056000000
H     2.773000000    -0.407000000    -5.933000000
H     3.374000000    -1.377000000    -4.939000000
O    -2.049000000     2.303000000     6.951000000
H    -1.851000000     3.237000000     6.872000000
H    -2.317000000     2.040000000     6.070000000
O    -3.983000000    -0.132000000     2.100000000
H    -4.451000000    -0.648000000     1.444000000
H    -3.672000000     0.637000000     1.623000000
O     3.153000000    -3.174000000    -4.902000000
H     2.339000000    -3.618000000    -5.141000000
H     3.154000000    -3.175000000    -3.945000000
O     3.306000000    -3.704000000     2.837000000
H     3.924000000    -3.215000000     2.293000000
H     2.760000000    -4.179000000     2.211000000
O     3.695000000     2.566000000     1.112000000
H     4.189000000     3.107000000     1.728000000
H     2.828000000     2.482000000     1.510000000
O     3.403000000    -3.553000000    -2.242000000
H     3.981000000    -3.539000000    -1.480000000
H     2.580000000    -3.912000000    -1.912000000
O    -3.369000000     1.218000000     4.734000000
H    -2.829000000     0.573000000     5.190000000
H    -3.401000000     0.907000000     3.829000000
O     6.217000000    -1.174000000    -3.834000000
H     5.403000000    -1.519000000    -3.465000000
H     6.447000000    -1.794000000    -4.526000000
O    -5.220000000     5.912000000    -0.803000000
H    -5.345000000     5.302000000    -0.076000000
H    -4.282000000     5.874000000    -0.989000000
O    -3.338000000     4.661000000    -2.042000000
H    -2.441000000     4.981000000    -1.950000000
H    -3.310000000     3.767000000    -1.700000000
O    -6.499000000     4.600000000    -2.886000000
H    -6.213000000     3.742000000    -2.574000000
H    -5.945000000     5.223000000    -2.415000000
O    -3.126000000     0.682000000    -3.696000000
H    -4.060000000     0.528000000    -3.839000000
H    -3.079000000     1.063000000    -2.819000000
O    -1.644000000    -0.666000000     6.009000000
H    -1.917000000    -1.107000000     6.814000000
H    -0.786000000    -0.297000000     6.218000000
O    -1.213000000    -2.657000000     0.345000000
H    -0.914000000    -1.853000000     0.769000000
H    -1.956000000    -2.382000000    -0.193000000
O     4.432000000     3.135000000    -1.354000000
H     4.182000000     2.733000000    -0.522000000
H     3.887000000     2.695000000    -2.007000000
O     0.741000000    -5.158000000     0.786000000
H     0.169000000    -5.654000000     0.200000000
H     0.236000000    -4.375000000     1.006000000
O    -6.180000000    -1.123000000     0.413000000
H    -6.803000000    -0.681000000    -0.163000000
H    -6.678000000    -1.304000000     1.211000000
O    -0.209000000    -2.194000000    -4.123000000
H     0.566000000    -2.755000000    -4.160000000
H    -0.500000000    -2.247000000    -3.212000000
O    -0.258000000     0.685000000    -7.607000000
H     0.689000000     0.719000000    -7.737000000
H    -0.375000000     0.784000000    -6.663000000
O     3.839000000     0.621000000     4.580000000
H     3.437000000    -0.211000000     4.828000000
H     3.170000000     1.277000000     4.775000000
O    -5.731000000     3.153000000     3.980000000
H    -6.580000000     3.305000000     3.563000000
H    -5.751000000     2.230000000     4.233000000
O    -0.576000000     0.482000000    -4.592000000
H    -0.386000000    -0.453000000    -4.522000000
H    -1.401000000     0.595000000    -4.120000000
O     0.591000000    -4.676000000     4.567000000
H     0.059000000    -5.440000000     4.789000000
H    -0.027000000    -4.063000000     4.167000000
O    -6.087000000    -0.227000000    -3.454000000
H    -6.836000000    -0.648000000    -3.876000000
H    -5.997000000     0.612000000    -3.907000000
O    -7.901000000     2.729000000    -0.220000000
H    -8.259000000     2.422000000    -1.053000000
H    -6.953000000     2.735000000    -0.354000000
O    -3.250000000     4.214000000     3.990000000
H    -4.015000000     3.645000000     4.078000000
H    -2.948000000     4.349000000     4.888000000
