144
-2796.28669
O     3.657000000    -0.664000000    -5.310000000
H     2.901000000    -1.245000000    -5.394000000
H     3.899000000    -0.717000000    -4.385000000
O    -4.683000000     4.329000000    -0.049000000
H    -4.465000000     5.011000000     0.586000000
H    -3.954000000     3.711000000     0.003000000
O     5.531000000    -2.108000000     2.514000000
H     5.170000000    -2.062000000     3.399000000
H     4.965000000    -2.729000000     2.056000000
O    -0.456000000    -5.038000000     0.204000000
H    -1.117000000    -5.664000000    -0.091000000
H    -0.347000000    -4.440000000    -0.536000000
O     2.838000000     1.745000000     4.481000000
H     2.510000000     2.619000000     4.269000000
H     3.089000000     1.801000000     5.403000000
O     3.428000000    -4.063000000     4.902000000
H     3.921000000    -4.204000000     4.094000000
H     3.336000000    -3.113000000     4.965000000
O    -2.627000000     3.499000000     2.498000000
H    -3.450000000     3.986000000     2.545000000
H    -2.574000000     3.205000000     1.589000000
O    -4.010000000     4.194000000    -4.594000000
H    -4.809000000     4.705000000    -4.467000000
H    -3.616000000     4.146000000    -3.722000000
O    -5.680000000    -0.645000000    -0.523000000
H    -5.498000000    -0.764000000     0.409000000
H    -4.913000000    -0.181000000    -0.859000000
O     2.706000000     1.710000000    -2.265000000
H     2.524000000     2.463000000    -1.702000000
H     1.906000000     1.187000000    -2.232000000
O    -0.260000000     5.820000000     1.926000000
H     0.385000000     6.525000000     1.860000000
H    -1.026000000     6.234000000     2.324000000
O    -1.193000000    -2.131000000    -4.333000000
H    -2.099000000    -2.223000000    -4.626000000
H    -1.151000000    -1.251000000    -3.958000000
O     4.916000000     2.261000000     1.542000000
H     4.267000000     2.298000000     2.244000000
H     5.400000000     1.452000000     1.707000000
O    -2.256000000     3.639000000    -2.302000000
H    -2.591000000     3.423000000    -1.431000000
H    -2.238000000     2.802000000    -2.766000000
O     5.013000000    -4.970000000    -0.735000000
H     5.267000000    -5.701000000    -0.172000000
H     4.389000000    -5.349000000    -1.353000000
O     3.906000000    -4.040000000     1.528000000
H     2.969000000    -4.044000000     1.721000000
H     3.961000000    -4.268000000     0.600000000
O     4.162000000    -1.526000000     4.822000000
H     4.529000000    -0.759000000     5.263000000
H     3.300000000    -1.239000000     4.522000000
O     3.554000000     4.412000000     2.847000000
H     4.059000000     4.724000000     2.096000000
H     3.435000000     5.188000000     3.394000000
O    -3.674000000    -3.806000000    -1.410000000
H    -4.257000000    -3.895000000    -0.656000000
H    -2.801000000    -3.985000000    -1.059000000
O     2.776000000    -6.813000000    -0.540000000
H     2.289000000    -6.025000000    -0.778000000
H     2.211000000    -7.536000000    -0.812000000
O    -1.326000000     1.600000000     3.632000000
H    -1.828000000     2.317000000     3.243000000
H    -0.590000000     1.472000000     3.034000000
O    -0.648000000    -2.187000000     2.838000000
H    -1.176000000    -1.653000000     3.431000000
H    -1.237000000    -2.393000000     2.112000000
O     5.606000000     3.463000000    -0.868000000
H     5.344000000     2.985000000    -0.082000000
H     6.039000000     2.807000000    -1.414000000
O    -0.605000000    -3.964000000    -2.388000000
H    -0.759000000    -4.839000000    -2.745000000
H    -0.821000000    -3.371000000    -3.107000000
O     1.012000000     3.514000000     3.041000000
H     1.822000000     3.929000000     2.746000000
H     0.316000000     4.062000000     2.678000000
O    -4.159000000    -1.462000000    -3.336000000
H    -4.897000000    -0.955000000    -2.999000000
H    -3.892000000    -2.013000000    -2.600000000
O    -0.070000000     4.817000000    -3.568000000
H    -0.762000000     4.342000000    -3.108000000
H     0.659000000     4.838000000    -2.948000000
O     6.677000000     0.032000000     1.633000000
H     6.633000000    -0.159000000     0.696000000
H     6.379000000    -0.774000000     2.056000000
O    -0.121000000    -3.871000000     4.971000000
H     0.406000000    -4.648000000     4.786000000
H    -0.210000000    -3.435000000     4.123000000
O    -5.590000000     5.885000000    -2.118000000
H    -5.327000000     5.300000000    -1.406000000
H    -6.437000000     5.546000000    -2.405000000
O    -7.955000000     0.905000000    -1.628000000
H    -8.885000000     0.717000000    -1.753000000
H    -7.536000000     0.045000000    -1.613000000
O    -4.746000000     0.023000000     4.045000000
H    -4.678000000     0.378000000     3.159000000
H    -4.837000000     0.793000000     4.606000000
O     0.156000000     0.550000000    -2.823000000
H     0.278000000     0.265000000    -1.918000000
H    -0.780000000     0.739000000    -2.891000000
O    -4.857000000     6.463000000     1.756000000
H    -4.026000000     6.746000000     2.136000000
H    -5.050000000     7.119000000     1.087000000
O    -2.465000000     0.916000000    -3.339000000
H    -3.061000000     0.751000000    -4.069000000
H    -2.959000000     0.653000000    -2.562000000
O     5.147000000     0.657000000    -2.655000000
H     4.951000000    -0.266000000    -2.495000000
H     4.292000000     1.087000000    -2.653000000
O     1.387000000    -4.312000000     2.037000000
H     1.144000000    -3.427000000     2.309000000
H     0.628000000    -4.628000000     1.545000000
O     1.462000000    -2.532000000    -5.317000000
H     0.604000000    -2.208000000    -5.043000000
H     1.464000000    -3.454000000    -5.061000000
O     2.254000000    -4.263000000    -2.274000000
H     2.179000000    -4.500000000    -3.198000000
H     1.411000000    -3.861000000    -2.060000000
O    -5.980000000     2.459000000     1.467000000
H    -6.073000000     3.203000000     0.873000000
H    -5.150000000     2.615000000     1.918000000
O    -3.671000000    -3.157000000     2.011000000
H    -3.506000000    -4.047000000     1.698000000
H    -3.715000000    -3.242000000     2.963000000
O    -1.569000000     6.009000000    -0.777000000
H    -1.724000000     5.128000000    -1.117000000
H    -0.980000000     5.879000000    -0.034000000
O    -5.530000000     1.409000000    -2.962000000
H    -6.410000000     1.270000000    -2.610000000
H    -4.957000000     1.368000000    -2.197000000
O     4.322000000    -2.042000000    -2.688000000
H     4.868000000    -2.767000000    -2.992000000
H     3.694000000    -2.449000000    -2.091000000
O    -6.279000000    -1.544000000     2.032000000
H    -5.475000000    -2.057000000     2.116000000
H    -6.969000000    -2.125000000     2.352000000
O     1.650000000    -0.736000000     4.027000000
H     0.832000000    -0.526000000     3.575000000
H     1.980000000     0.110000000     4.330000000
O    -4.654000000     1.284000000    -5.787000000
H    -4.147000000     2.092000000    -5.868000000
H    -5.067000000     1.346000000    -4.926000000
O    -8.341000000     0.747000000     1.302000000
H    -7.451000000     0.641000000     1.639000000
H    -8.235000000     1.271000000     0.507000000
