144
-2816.90327
O    -0.524000000     6.086000000    -0.353000000
H    -0.121000000     5.290000000    -0.699000000
H    -1.242000000     5.772000000     0.197000000
O    -0.404000000     3.458000000     4.506000000
H     0.195000000     3.635000000     3.781000000
H    -1.223000000     3.882000000     4.251000000
O     3.965000000     3.426000000    -2.082000000
H     4.388000000     2.879000000    -2.744000000
H     4.101000000     2.955000000    -1.260000000
O     3.572000000     0.806000000    -6.351000000
H     4.038000000     1.282000000    -7.038000000
H     4.049000000     1.014000000    -5.548000000
O    -1.598000000     4.137000000    -2.857000000
H    -1.021000000     4.514000000    -3.522000000
H    -2.291000000     4.787000000    -2.745000000
O    -6.798000000     0.685000000     3.899000000
H    -6.230000000     1.296000000     3.430000000
H    -7.671000000     1.075000000     3.838000000
O    -5.631000000    -0.311000000    -4.391000000
H    -5.538000000    -0.406000000    -3.443000000
H    -6.511000000    -0.637000000    -4.578000000
O     2.764000000    -3.306000000     2.590000000
H     2.826000000    -3.389000000     1.639000000
H     3.327000000    -2.561000000     2.803000000
O    -2.926000000     4.600000000     4.011000000
H    -3.134000000     4.692000000     4.941000000
H    -3.450000000     5.276000000     3.581000000
O     0.174000000     3.269000000     0.113000000
H    -0.776000000     3.381000000     0.143000000
H     0.304000000     2.455000000    -0.374000000
O     4.609000000    -5.114000000    -3.011000000
H     4.000000000    -4.408000000    -3.228000000
H     4.977000000    -4.861000000    -2.164000000
O    -7.512000000     2.530000000     1.073000000
H    -6.847000000     2.407000000     1.751000000
H    -7.512000000     3.473000000     0.906000000
O    -3.163000000    -2.613000000     5.669000000
H    -3.470000000    -3.516000000     5.584000000
H    -2.954000000    -2.347000000     4.773000000
O     1.403000000     3.601000000    -3.895000000
H     1.309000000     4.549000000    -3.801000000
H     2.167000000     3.382000000    -3.362000000
O     5.459000000    -2.774000000    -0.767000000
H     4.618000000    -3.065000000    -0.415000000
H     5.261000000    -2.501000000    -1.663000000
O    -5.218000000    -0.486000000    -1.832000000
H    -6.119000000    -0.247000000    -1.615000000
H    -4.696000000    -0.132000000    -1.113000000
O     2.297000000     5.036000000    -0.135000000
H     2.684000000     4.202000000     0.130000000
H     2.136000000     4.938000000    -1.074000000
O    -2.374000000     3.968000000     0.606000000
H    -2.800000000     3.139000000     0.387000000
H    -2.625000000     4.133000000     1.514000000
O     1.253000000     0.093000000    -4.911000000
H     1.567000000    -0.556000000    -5.541000000
H     1.696000000     0.904000000    -5.161000000
O     3.452000000     2.432000000     0.615000000
H     2.653000000     1.939000000     0.802000000
H     4.016000000     2.270000000     1.371000000
O    -3.545000000     2.316000000     6.707000000
H    -3.425000000     1.890000000     5.858000000
H    -4.494000000     2.344000000     6.829000000
O     0.365000000    -4.815000000     0.157000000
H     0.008000000    -5.549000000    -0.344000000
H    -0.376000000    -4.220000000     0.271000000
O    -2.578000000    -2.130000000     2.972000000
H    -2.681000000    -1.180000000     3.014000000
H    -2.488000000    -2.320000000     2.038000000
O     6.680000000     0.034000000    -2.390000000
H     7.550000000    -0.208000000    -2.708000000
H     6.110000000    -0.674000000    -2.689000000
O    -4.558000000     3.174000000    -1.395000000
H    -4.329000000     2.506000000    -0.749000000
H    -5.473000000     2.996000000    -1.610000000
O    -4.326000000    -3.055000000    -1.159000000
H    -4.785000000    -2.215000000    -1.182000000
H    -4.966000000    -3.667000000    -0.795000000
O    -5.094000000     2.287000000     2.605000000
H    -4.491000000     1.976000000     1.929000000
H    -4.526000000     2.576000000     3.318000000
O    -6.396000000    -3.151000000     0.611000000
H    -6.284000000    -3.710000000     1.380000000
H    -6.037000000    -2.305000000     0.877000000
O     2.708000000    -3.313000000    -4.188000000
H     1.896000000    -2.982000000    -3.803000000
H     2.813000000    -2.808000000    -4.995000000
O    -3.662000000     5.637000000    -1.979000000
H    -3.961000000     6.135000000    -1.218000000
H    -3.719000000     4.722000000    -1.703000000
O     1.413000000    -3.533000000     5.034000000
H     2.178000000    -3.244000000     5.532000000
H     1.726000000    -3.598000000     4.131000000
O    -7.117000000    -2.514000000     3.996000000
H    -7.053000000    -2.714000000     4.930000000
H    -6.819000000    -1.607000000     3.924000000
O    -1.838000000    -2.906000000    -0.197000000
H    -1.822000000    -1.965000000    -0.372000000
H    -2.713000000    -3.185000000    -0.466000000
O     2.880000000    -3.837000000    -0.239000000
H     3.082000000    -4.754000000    -0.049000000
H     1.924000000    -3.792000000    -0.212000000
O     5.294000000     1.797000000    -4.113000000
H     5.873000000     1.275000000    -3.558000000
H     5.885000000     2.274000000    -4.695000000
O    -2.947000000     1.617000000    -3.712000000
H    -2.871000000     2.465000000    -3.275000000
H    -3.709000000     1.710000000    -4.284000000
O    -2.374000000    -1.025000000    -3.583000000
H    -3.253000000    -1.343000000    -3.376000000
H    -2.419000000    -0.081000000    -3.430000000
O    -0.446000000    -4.544000000    -3.331000000
H    -0.244000000    -3.623000000    -3.498000000
H    -1.356000000    -4.540000000    -3.033000000
O    -0.808000000     2.758000000    -5.302000000
H    -0.010000000     3.101000000    -4.899000000
H    -1.277000000     2.334000000    -4.584000000
O     4.501000000    -1.171000000     2.719000000
H     4.978000000    -1.083000000     3.544000000
H     4.768000000    -0.410000000     2.205000000
O     5.281000000     1.665000000     2.300000000
H     5.795000000     1.613000000     3.105000000
H     5.566000000     0.911000000     1.784000000
O    -5.360000000    -0.973000000     1.721000000
H    -6.043000000    -0.360000000     1.992000000
H    -4.559000000    -0.448000000     1.706000000
O     0.275000000    -2.039000000    -3.371000000
H    -0.653000000    -1.814000000    -3.306000000
H     0.705000000    -1.219000000    -3.612000000
O    -7.568000000     0.420000000    -0.972000000
H    -8.045000000     0.882000000    -1.661000000
H    -7.673000000     0.973000000    -0.197000000
O    -2.730000000     0.742000000     4.700000000
H    -2.823000000     0.729000000     3.748000000
H    -1.819000000     0.491000000     4.855000000
O    -0.108000000     1.157000000     5.800000000
H     0.825000000     0.978000000     5.911000000
H    -0.138000000     1.923000000     5.226000000
O     5.169000000    -2.152000000    -3.465000000
H     5.661000000    -2.247000000    -4.280000000
H     4.265000000    -2.360000000    -3.705000000
O     6.148000000    -0.266000000     0.412000000
H     6.056000000    -1.111000000    -0.029000000
H     6.630000000     0.278000000    -0.211000000
