144
-2808.58221
O     5.364000000     4.425000000    -1.520000000
H     5.672000000     3.550000000    -1.755000000
H     5.746000000     4.591000000    -0.658000000
O    -4.963000000     0.003000000    -4.594000000
H    -5.767000000    -0.504000000    -4.475000000
H    -5.090000000     0.783000000    -4.054000000
O     2.144000000     1.797000000    -3.962000000
H     1.902000000     2.319000000    -3.196000000
H     2.776000000     2.340000000    -4.432000000
O    -2.229000000     4.129000000     0.933000000
H    -2.777000000     4.911000000     0.872000000
H    -2.780000000     3.484000000     1.378000000
O     1.489000000    -2.486000000     4.170000000
H     0.925000000    -2.760000000     3.447000000
H     2.358000000    -2.404000000     3.777000000
O     3.520000000     1.415000000     4.636000000
H     2.743000000     1.565000000     4.098000000
H     3.330000000     0.606000000     5.111000000
O     7.679000000     0.398000000    -1.626000000
H     7.078000000     1.140000000    -1.689000000
H     7.449000000    -0.160000000    -2.369000000
O     6.640000000    -3.285000000    -2.079000000
H     5.775000000    -3.590000000    -1.807000000
H     7.233000000    -3.617000000    -1.405000000
O    -5.936000000     1.676000000     3.244000000
H    -6.251000000     0.970000000     2.680000000
H    -6.717000000     2.193000000     3.440000000
O     0.049000000     4.402000000    -3.577000000
H     0.217000000     5.259000000    -3.969000000
H    -0.722000000     4.537000000    -3.027000000
O    -8.336000000    -3.225000000    -0.932000000
H    -8.682000000    -2.857000000    -0.119000000
H    -7.409000000    -2.985000000    -0.928000000
O     2.622000000     4.950000000    -1.575000000
H     2.161000000     4.810000000    -0.748000000
H     3.460000000     4.503000000    -1.462000000
O    -2.206000000     5.213000000    -2.111000000
H    -2.182000000     4.802000000    -1.247000000
H    -3.106000000     5.528000000    -2.202000000
O     5.279000000    -2.689000000     0.963000000
H     5.476000000    -3.618000000     1.081000000
H     6.084000000    -2.317000000     0.603000000
O    -4.986000000     1.284000000    -1.862000000
H    -5.912000000     1.191000000    -1.637000000
H    -4.536000000     0.670000000    -1.283000000
O     3.228000000     3.392000000     0.943000000
H     2.289000000     3.574000000     0.898000000
H     3.288000000     2.437000000     0.927000000
O     1.501000000     1.810000000     3.088000000
H     1.626000000     1.693000000     2.146000000
H     0.625000000     2.189000000     3.168000000
O     5.616000000     1.244000000     2.835000000
H     5.891000000     1.986000000     3.373000000
H     4.760000000     0.997000000     3.185000000
O    -0.251000000     0.650000000    -4.912000000
H    -0.961000000     1.243000000    -4.666000000
H     0.533000000     1.043000000    -4.528000000
O    -0.569000000    -3.926000000     0.185000000
H    -1.056000000    -3.686000000     0.973000000
H    -1.228000000    -4.305000000    -0.398000000
O    -2.461000000    -3.001000000     2.306000000
H    -3.210000000    -3.536000000     2.567000000
H    -2.844000000    -2.162000000     2.049000000
O    -4.428000000    -1.329000000     3.907000000
H    -4.162000000    -0.801000000     3.154000000
H    -4.991000000    -2.009000000     3.537000000
O     0.254000000     3.429000000    -0.090000000
H    -0.015000000     3.181000000    -0.974000000
H    -0.560000000     3.680000000     0.346000000
O     1.720000000    -0.821000000     6.193000000
H     2.366000000    -1.318000000     6.694000000
H     1.704000000    -1.246000000     5.335000000
O    -1.215000000     2.816000000     3.935000000
H    -1.943000000     2.727000000     3.320000000
H    -1.634000000     2.947000000     4.785000000
O    -5.299000000    -2.752000000    -0.976000000
H    -4.844000000    -1.929000000    -0.801000000
H    -5.235000000    -2.865000000    -1.925000000
O    -2.015000000    -4.313000000    -2.102000000
H    -2.716000000    -4.370000000    -2.751000000
H    -1.708000000    -3.408000000    -2.159000000
O    -3.453000000     2.059000000     2.375000000
H    -3.374000000     1.147000000     2.094000000
H    -4.365000000     2.147000000     2.652000000
O    -8.596000000    -1.617000000     1.170000000
H    -7.681000000    -1.337000000     1.137000000
H    -9.097000000    -0.804000000     1.105000000
O     3.917000000    -3.798000000    -2.296000000
H     3.278000000    -3.226000000    -1.870000000
H     3.758000000    -3.680000000    -3.232000000
O    -2.164000000    -1.164000000     6.286000000
H    -2.175000000    -0.969000000     5.349000000
H    -2.016000000    -0.316000000     6.705000000
O     1.102000000    -2.873000000    -2.145000000
H     0.580000000    -2.587000000    -2.894000000
H     0.575000000    -2.637000000    -1.381000000
O     1.938000000    -4.879000000     1.087000000
H     2.660000000    -5.091000000     0.496000000
H     1.339000000    -4.355000000     0.555000000
O     5.779000000     1.958000000    -3.043000000
H     5.411000000     1.270000000    -3.597000000
H     5.780000000     2.738000000    -3.598000000
O    -2.250000000     2.136000000    -4.041000000
H    -2.920000000     2.662000000    -4.478000000
H    -2.609000000     1.969000000    -3.169000000
O    -4.848000000     3.175000000    -3.739000000
H    -4.990000000     4.078000000    -3.453000000
H    -4.956000000     2.652000000    -2.945000000
O    -3.549000000    -1.670000000    -3.028000000
H    -3.803000000    -1.246000000    -3.848000000
H    -3.692000000    -1.003000000    -2.358000000
O    -4.482000000     0.878000000     5.861000000
H    -5.233000000     1.100000000     5.311000000
H    -4.267000000    -0.023000000     5.622000000
O    -5.091000000    -3.847000000     2.906000000
H    -5.187000000    -4.275000000     2.055000000
H    -5.068000000    -4.568000000     3.535000000
O     3.968000000    -1.945000000     3.137000000
H     4.474000000    -1.312000000     3.647000000
H     4.400000000    -1.963000000     2.282000000
O    -5.654000000    -5.043000000     0.595000000
H    -5.399000000    -4.362000000    -0.028000000
H    -6.052000000    -5.725000000     0.053000000
O     8.054000000     2.474000000     1.653000000
H     7.182000000     2.190000000     1.378000000
H     7.895000000     3.256000000     2.182000000
O    -6.072000000    -0.617000000     1.042000000
H    -6.018000000     0.190000000     0.530000000
H    -5.279000000    -1.100000000     0.811000000
O    -0.872000000    -1.924000000    -3.820000000
H    -1.823000000    -1.912000000    -3.716000000
H    -0.667000000    -1.095000000    -4.253000000
O    -7.480000000     1.203000000    -0.692000000
H    -8.372000000     1.053000000    -0.377000000
H    -7.165000000     1.944000000    -0.175000000
O     4.545000000     0.136000000    -4.764000000
H     4.697000000     0.103000000    -5.708000000
H     3.613000000     0.337000000    -4.678000000
O     0.128000000     1.413000000     6.443000000
H    -0.367000000     1.414000000     5.624000000
H     0.727000000     0.671000000     6.359000000
O     6.776000000    -1.237000000    -3.709000000
H     6.031000000    -0.961000000    -4.243000000
H     6.479000000    -2.041000000    -3.283000000
