144
-2827.74738
O    -0.405000000     0.804000000     4.144000000
H     0.272000000     1.468000000     4.012000000
H     0.045000000    -0.028000000     3.997000000
O     0.496000000    -3.558000000    -3.379000000
H    -0.269000000    -3.455000000    -2.814000000
H     0.928000000    -4.348000000    -3.056000000
O    -5.623000000     0.088000000    -3.200000000
H    -5.452000000    -0.033000000    -4.134000000
H    -6.027000000    -0.735000000    -2.922000000
O    -2.086000000     6.770000000     1.446000000
H    -1.645000000     6.977000000     0.623000000
H    -2.724000000     6.096000000     1.213000000
O     0.574000000     1.141000000    -2.928000000
H     0.544000000     0.400000000    -3.534000000
H     0.312000000     0.771000000    -2.085000000
O     0.009000000     5.031000000     2.514000000
H     0.806000000     5.527000000     2.327000000
H    -0.683000000     5.508000000     2.056000000
O    -4.944000000    -2.548000000    -4.531000000
H    -5.482000000    -2.650000000    -3.746000000
H    -5.247000000    -3.237000000    -5.121000000
O    -3.071000000     0.620000000     3.214000000
H    -3.327000000     1.131000000     2.446000000
H    -2.143000000     0.819000000     3.337000000
O    -1.428000000     4.427000000    -0.724000000
H    -0.505000000     4.222000000    -0.874000000
H    -1.430000000     5.348000000    -0.463000000
O    -3.772000000     3.583000000     5.141000000
H    -2.916000000     3.190000000     5.312000000
H    -3.827000000     3.628000000     4.186000000
O     4.246000000     4.343000000     3.060000000
H     4.163000000     5.087000000     2.463000000
H     3.387000000     4.274000000     3.478000000
O     1.722000000    -6.423000000    -2.472000000
H     1.708000000    -7.377000000    -2.398000000
H     1.404000000    -6.112000000    -1.625000000
O    -7.879000000    -0.435000000    -0.129000000
H    -8.597000000     0.182000000    -0.274000000
H    -7.291000000     0.020000000     0.474000000
O    -4.163000000     5.009000000     0.224000000
H    -3.502000000     4.793000000    -0.434000000
H    -4.961000000     4.583000000    -0.088000000
O     1.387000000     2.824000000     3.833000000
H     1.734000000     3.405000000     4.509000000
H     0.804000000     3.380000000     3.316000000
O    -3.659000000     3.515000000     2.408000000
H    -3.506000000     4.359000000     1.982000000
H    -3.777000000     2.899000000     1.685000000
O     5.810000000     0.520000000    -2.669000000
H     5.807000000    -0.424000000    -2.827000000
H     6.200000000     0.617000000    -1.799000000
O     4.080000000     2.945000000    -1.151000000
H     4.394000000     2.105000000    -0.816000000
H     3.882000000     2.777000000    -2.072000000
O     1.002000000    -1.580000000     3.728000000
H     0.530000000    -1.909000000     2.962000000
H     1.730000000    -2.191000000     3.841000000
O    -2.203000000    -1.467000000    -4.177000000
H    -2.293000000    -0.516000000    -4.229000000
H    -2.968000000    -1.806000000    -4.642000000
O     3.543000000     0.691000000     3.049000000
H     2.921000000     1.378000000     3.289000000
H     3.436000000     0.590000000     2.103000000
O    -6.727000000    -2.215000000    -1.856000000
H    -7.168000000    -1.557000000    -1.318000000
H    -5.854000000    -2.292000000    -1.471000000
O     3.666000000     5.814000000    -0.082000000
H     3.813000000     4.868000000    -0.048000000
H     4.214000000     6.116000000    -0.806000000
O     1.373000000     3.814000000    -0.760000000
H     2.315000000     3.650000000    -0.809000000
H     0.999000000     2.977000000    -0.483000000
O    -6.396000000     2.005000000     3.953000000
H    -6.450000000     1.786000000     3.023000000
H    -5.812000000     2.762000000     3.987000000
O    -6.151000000     1.130000000     1.266000000
H    -6.309000000     1.927000000     0.759000000
H    -5.256000000     0.875000000     1.039000000
O     6.412000000     1.037000000     0.028000000
H     6.327000000     0.391000000     0.729000000
H     7.248000000     1.471000000     0.202000000
O    -2.775000000    -4.909000000     1.553000000
H    -3.267000000    -4.257000000     1.054000000
H    -3.151000000    -5.748000000     1.287000000
O    -6.536000000    -2.620000000     1.438000000
H    -6.968000000    -1.974000000     0.879000000
H    -7.044000000    -3.422000000     1.313000000
O    -4.338000000     2.212000000    -1.948000000
H    -4.196000000     1.814000000    -1.089000000
H    -4.759000000     1.524000000    -2.464000000
O     0.775000000    -5.445000000    -0.006000000
H     0.029000000    -4.996000000    -0.405000000
H     0.384000000    -6.024000000     0.648000000
O     6.042000000    -0.512000000     2.660000000
H     5.333000000     0.044000000     2.984000000
H     6.675000000    -0.535000000     3.378000000
O    -1.301000000    -2.780000000     2.654000000
H    -1.271000000    -3.481000000     2.003000000
H    -2.152000000    -2.363000000     2.518000000
O     1.117000000    -0.888000000    -4.718000000
H     1.021000000    -1.753000000    -4.320000000
H     0.623000000    -0.944000000    -5.536000000
O     3.385000000     1.739000000    -3.599000000
H     2.655000000     1.152000000    -3.403000000
H     4.166000000     1.206000000    -3.453000000
O    -3.006000000     1.301000000    -4.454000000
H    -2.282000000     1.799000000    -4.075000000
H    -3.725000000     1.412000000    -3.832000000
O    -4.047000000    -2.694000000    -1.265000000
H    -3.989000000    -1.802000000    -0.923000000
H    -3.811000000    -2.612000000    -2.189000000
O     3.947000000    -1.516000000    -6.008000000
H     3.859000000    -1.795000000    -5.096000000
H     3.066000000    -1.600000000    -6.371000000
O    -6.511000000     4.527000000    -0.565000000
H    -7.181000000     4.935000000    -0.017000000
H    -6.918000000     3.721000000    -0.881000000
O     5.707000000    -3.749000000     0.839000000
H     5.062000000    -4.426000000     1.042000000
H     5.938000000    -3.375000000     1.689000000
O     4.394000000    -2.643000000    -3.527000000
H     4.154000000    -3.551000000    -3.341000000
H     5.157000000    -2.478000000    -2.973000000
O    -5.000000000    -5.254000000    -1.586000000
H    -4.953000000    -5.136000000    -2.534000000
H    -4.849000000    -4.380000000    -1.227000000
O     2.470000000    -4.956000000     2.126000000
H     3.090000000    -5.682000000     2.066000000
H     1.847000000    -5.113000000     1.416000000
O    -3.947000000    -2.119000000     1.976000000
H    -4.814000000    -2.459000000     1.752000000
H    -3.847000000    -1.340000000     1.429000000
O    -1.290000000    -4.283000000    -1.590000000
H    -2.160000000    -4.035000000    -1.277000000
H    -1.414000000    -5.147000000    -1.983000000
O    -1.272000000     2.725000000     6.112000000
H    -1.294000000     2.176000000     6.896000000
H    -1.012000000     2.129000000     5.410000000
O     6.385000000    -2.562000000    -1.622000000
H     6.162000000    -3.029000000    -0.816000000
H     7.256000000    -2.201000000    -1.457000000
O     3.240000000    -2.873000000     3.585000000
H     2.925000000    -3.376000000     2.833000000
H     4.138000000    -2.635000000     3.354000000
