144
-2810.60627
O    -7.158000000    -0.611000000    -1.849000000
H    -6.709000000    -1.447000000    -1.724000000
H    -6.971000000    -0.117000000    -1.051000000
O     2.605000000     3.154000000    -2.714000000
H     1.889000000     2.563000000    -2.949000000
H     3.066000000     2.702000000    -2.007000000
O    -3.627000000    -2.993000000    -1.225000000
H    -3.332000000    -2.332000000    -1.852000000
H    -2.881000000    -3.114000000    -0.636000000
O     0.503000000     1.805000000    -3.489000000
H     0.170000000     0.910000000    -3.425000000
H     0.017000000     2.190000000    -4.218000000
O    -0.899000000    -5.206000000    -2.106000000
H    -0.767000000    -6.048000000    -1.669000000
H    -1.110000000    -4.599000000    -1.397000000
O    -5.536000000     2.034000000    -1.664000000
H    -5.403000000     1.331000000    -2.299000000
H    -4.768000000     2.597000000    -1.765000000
O     2.122000000     2.962000000     0.276000000
H     1.573000000     3.744000000     0.332000000
H     1.619000000     2.284000000     0.727000000
O    -3.330000000     3.819000000     5.946000000
H    -2.943000000     3.140000000     5.393000000
H    -4.270000000     3.759000000     5.776000000
O    -3.798000000     1.829000000    -5.554000000
H    -3.749000000     2.460000000    -4.836000000
H    -4.090000000     2.344000000    -6.306000000
O     1.950000000    -2.587000000     4.689000000
H     1.152000000    -3.001000000     5.020000000
H     2.531000000    -3.319000000     4.481000000
O     3.735000000     1.533000000     5.554000000
H     4.309000000     2.248000000     5.827000000
H     4.232000000     1.071000000     4.879000000
O    -2.519000000    -3.985000000     3.513000000
H    -3.031000000    -3.810000000     4.303000000
H    -2.126000000    -3.141000000     3.291000000
O    -1.515000000    -3.154000000     0.223000000
H    -1.385000000    -2.390000000     0.785000000
H    -1.499000000    -3.899000000     0.825000000
O    -0.419000000    -0.289000000    -8.617000000
H     0.386000000    -0.684000000    -8.282000000
H    -0.915000000    -0.054000000    -7.833000000
O    -1.790000000    -1.354000000     2.827000000
H    -1.088000000    -0.918000000     3.309000000
H    -2.315000000    -0.639000000     2.469000000
O     1.843000000    -0.124000000     6.642000000
H     2.402000000     0.600000000     6.360000000
H     2.031000000    -0.828000000     6.021000000
O    -3.779000000     3.816000000    -2.777000000
H    -3.953000000     4.754000000    -2.851000000
H    -2.889000000     3.764000000    -2.428000000
O     5.356000000    -2.660000000    -2.594000000
H     6.006000000    -2.557000000    -1.899000000
H     5.592000000    -1.996000000    -3.243000000
O     2.657000000    -3.116000000     0.402000000
H     2.202000000    -3.684000000     1.025000000
H     2.020000000    -2.968000000    -0.296000000
O    -1.880000000     3.730000000     3.108000000
H    -1.837000000     2.998000000     3.724000000
H    -1.192000000     4.329000000     3.400000000
O     0.111000000     4.825000000     0.355000000
H     0.268000000     5.769000000     0.361000000
H    -0.424000000     4.665000000     1.133000000
O    -0.807000000     3.925000000    -2.034000000
H    -0.403000000     4.282000000    -1.243000000
H    -0.213000000     3.228000000    -2.312000000
O     4.322000000    -1.038000000    -4.989000000
H     3.866000000    -0.465000000    -4.373000000
H     3.961000000    -1.908000000    -4.819000000
O    -2.084000000     1.468000000     4.750000000
H    -2.929000000     1.075000000     4.535000000
H    -1.646000000     0.813000000     5.293000000
O    -4.741000000     0.112000000    -3.681000000
H    -3.962000000    -0.335000000    -3.349000000
H    -4.438000000     0.571000000    -4.465000000
O    -3.817000000     4.200000000     1.296000000
H    -4.087000000     3.287000000     1.201000000
H    -3.209000000     4.195000000     2.035000000
O     1.310000000    -1.684000000    -5.192000000
H     0.637000000    -1.443000000    -4.556000000
H     0.939000000    -2.429000000    -5.663000000
O     4.336000000    -1.221000000     3.962000000
H     3.627000000    -1.863000000     3.912000000
H     5.040000000    -1.677000000     4.422000000
O    -7.480000000    -0.245000000    -5.026000000
H    -7.474000000     0.564000000    -5.538000000
H    -6.919000000    -0.056000000    -4.274000000
O    -5.690000000    -3.000000000    -4.282000000
H    -6.349000000    -3.173000000    -4.955000000
H    -5.567000000    -2.051000000    -4.306000000
O     4.369000000    -5.023000000    -0.780000000
H     4.062000000    -4.222000000    -0.355000000
H     4.743000000    -4.725000000    -1.609000000
O     0.635000000     2.201000000    -6.990000000
H     0.020000000     2.751000000    -6.505000000
H     0.408000000     1.306000000    -6.736000000
O     6.063000000     0.553000000     2.822000000
H     5.610000000     1.040000000     2.134000000
H     5.376000000     0.332000000     3.451000000
O    -6.441000000    -3.029000000    -0.695000000
H    -6.578000000    -3.891000000    -1.087000000
H    -5.495000000    -2.890000000    -0.746000000
O    -1.997000000    -2.576000000    -5.094000000
H    -1.279000000    -2.052000000    -4.739000000
H    -2.717000000    -2.444000000    -4.477000000
O     0.261000000     4.331000000     6.437000000
H     0.212000000     4.274000000     7.392000000
H     0.392000000     3.427000000     6.150000000
O     4.868000000    -1.715000000     1.005000000
H     4.048000000    -2.183000000     1.161000000
H     5.007000000    -1.204000000     1.802000000
O     0.401000000     4.999000000     3.805000000
H     0.734000000     5.857000000     3.542000000
H     0.221000000     5.089000000     4.741000000
O    -1.376000000     0.530000000    -5.974000000
H    -1.201000000    -0.047000000    -5.231000000
H    -2.237000000     0.905000000    -5.788000000
O     0.298000000    -3.794000000    -6.905000000
H     0.991000000    -3.838000000    -7.564000000
H    -0.489000000    -3.565000000    -7.400000000
O    -5.825000000     1.419000000     1.196000000
H    -5.991000000     1.558000000     0.264000000
H    -6.225000000     0.571000000     1.387000000
O    -0.865000000    -0.607000000     5.611000000
H    -1.120000000    -0.810000000     6.511000000
H     0.091000000    -0.646000000     5.618000000
O     6.672000000     3.834000000     0.835000000
H     7.309000000     3.321000000     1.332000000
H     5.873000000     3.307000000     0.853000000
O    -4.156000000    -5.031000000    -3.104000000
H    -3.738000000    -4.761000000    -2.286000000
H    -4.449000000    -4.213000000    -3.504000000
O     4.757000000     2.011000000     0.814000000
H     5.211000000     1.755000000     0.011000000
H     3.861000000     2.198000000     0.533000000
O     2.149000000    -0.722000000    -7.686000000
H     1.958000000    -1.077000000    -6.817000000
H     3.104000000    -0.742000000    -7.748000000
O    -4.458000000     0.259000000     4.407000000
H    -5.332000000     0.639000000     4.321000000
H    -4.280000000     0.278000000     5.347000000
O    -2.473000000    -4.215000000    -7.382000000
H    -3.364000000    -4.089000000    -7.707000000
H    -2.441000000    -3.713000000    -6.568000000
