144
-2820.22243
O     1.727000000     6.014000000     2.801000000
H     2.295000000     6.039000000     3.572000000
H     0.926000000     6.458000000     3.080000000
O     5.991000000     0.104000000    -2.254000000
H     5.345000000     0.297000000    -2.934000000
H     5.490000000     0.109000000    -1.439000000
O    -0.330000000     1.447000000    -5.906000000
H    -0.263000000     2.191000000    -5.308000000
H     0.393000000     1.569000000    -6.522000000
O    -3.836000000    -3.733000000    -3.588000000
H    -3.222000000    -3.056000000    -3.303000000
H    -3.691000000    -4.458000000    -2.980000000
O    -0.863000000     4.029000000     5.746000000
H    -0.490000000     4.789000000     6.193000000
H    -0.105000000     3.565000000     5.390000000
O     3.839000000    -0.800000000    -5.335000000
H     4.024000000    -1.734000000    -5.431000000
H     2.909000000    -0.762000000    -5.110000000
O    -2.594000000    -4.317000000    -1.061000000
H    -1.679000000    -4.598000000    -1.055000000
H    -2.552000000    -3.368000000    -1.180000000
O    -3.501000000     3.316000000     4.801000000
H    -4.070000000     2.833000000     5.401000000
H    -2.652000000     3.339000000     5.242000000
O     3.334000000    -4.222000000    -4.591000000
H     4.274000000    -4.203000000    -4.407000000
H     3.275000000    -4.508000000    -5.502000000
O    -5.785000000     1.509000000    -3.150000000
H    -5.952000000     2.072000000    -3.907000000
H    -5.079000000     0.930000000    -3.435000000
O     3.929000000     2.925000000    -1.638000000
H     4.182000000     2.702000000    -2.534000000
H     3.947000000     2.090000000    -1.170000000
O    -3.234000000     0.774000000    -6.098000000
H    -2.315000000     0.983000000    -5.928000000
H    -3.533000000     1.469000000    -6.684000000
O     1.837000000     2.872000000     4.960000000
H     2.134000000     3.667000000     4.517000000
H     1.839000000     2.203000000     4.276000000
O    -3.919000000    -4.333000000     1.329000000
H    -3.651000000    -4.483000000     0.422000000
H    -3.585000000    -3.460000000     1.536000000
O     1.840000000    -1.465000000    -7.574000000
H     1.281000000    -2.197000000    -7.312000000
H     2.199000000    -1.132000000    -6.752000000
O    -2.053000000     1.709000000     6.812000000
H    -1.189000000     1.542000000     6.437000000
H    -2.089000000     2.659000000     6.918000000
O     4.522000000     1.502000000    -4.181000000
H     4.061000000     0.753000000    -4.559000000
H     4.244000000     2.248000000    -4.713000000
O     0.267000000     0.374000000     5.914000000
H     0.814000000     0.615000000     6.662000000
H     0.793000000    -0.259000000     5.427000000
O    -0.581000000     3.399000000    -4.065000000
H    -0.177000000     4.256000000    -3.929000000
H    -0.918000000     3.154000000    -3.204000000
O     4.542000000    -4.242000000     0.065000000
H     5.314000000    -4.767000000     0.276000000
H     4.868000000    -3.564000000    -0.527000000
O     2.466000000    -2.176000000     1.692000000
H     1.915000000    -1.484000000     1.327000000
H     1.934000000    -2.968000000     1.621000000
O     5.153000000     2.413000000     2.722000000
H     6.100000000     2.387000000     2.585000000
H     4.992000000     3.269000000     3.119000000
O    -0.761000000     3.217000000    -1.298000000
H    -0.047000000     3.585000000    -0.778000000
H    -0.773000000     2.288000000    -1.064000000
O     0.392000000     4.748000000     0.834000000
H    -0.096000000     4.234000000     1.476000000
H     0.846000000     5.412000000     1.353000000
O    -2.944000000    -7.308000000    -1.370000000
H    -2.516000000    -6.479000000    -1.586000000
H    -2.901000000    -7.357000000    -0.415000000
O     1.836000000     4.486000000    -2.040000000
H     1.588000000     3.677000000    -2.488000000
H     2.530000000     4.221000000    -1.436000000
O     1.118000000    -4.509000000     1.051000000
H     1.276000000    -5.345000000     1.490000000
H     0.654000000    -4.745000000     0.248000000
O    -4.033000000    -0.491000000    -3.840000000
H    -3.278000000    -1.040000000    -3.629000000
H    -3.840000000    -0.141000000    -4.710000000
O    -3.590000000     4.216000000    -0.779000000
H    -4.198000000     3.582000000    -0.397000000
H    -2.733000000     3.793000000    -0.716000000
O     0.707000000    -4.336000000    -3.335000000
H     0.499000000    -3.405000000    -3.420000000
H     1.548000000    -4.435000000    -3.783000000
O     2.259000000    -1.431000000     4.860000000
H     2.692000000    -1.478000000     4.008000000
H     2.262000000    -2.333000000     5.180000000
O    -6.652000000    -3.160000000    -3.852000000
H    -5.747000000    -2.854000000    -3.914000000
H    -6.768000000    -3.378000000    -2.927000000
O     1.319000000    -0.720000000    -4.832000000
H     0.865000000    -1.308000000    -4.227000000
H     0.618000000    -0.317000000    -5.345000000
O    -1.580000000    -3.351000000    -5.195000000
H    -1.269000000    -2.781000000    -4.491000000
H    -2.524000000    -3.414000000    -5.052000000
O    -1.999000000    -0.422000000     4.205000000
H    -1.270000000    -0.008000000     4.668000000
H    -2.692000000    -0.490000000     4.862000000
O     4.994000000    -1.712000000     2.301000000
H     4.129000000    -2.013000000     2.025000000
H     5.581000000    -2.434000000     2.077000000
O    -1.809000000     4.042000000     2.366000000
H    -2.039000000     4.952000000     2.178000000
H    -2.284000000     3.836000000     3.171000000
O     2.191000000     1.911000000     7.529000000
H     2.988000000     2.417000000     7.685000000
H     1.996000000     2.050000000     6.602000000
O    -5.019000000    -0.812000000     0.080000000
H    -5.656000000    -1.495000000     0.290000000
H    -4.506000000    -1.177000000    -0.642000000
O     0.299000000    -3.778000000    -7.110000000
H    -0.412000000    -3.625000000    -6.487000000
H     0.857000000    -4.427000000    -6.683000000
O    -1.300000000    -6.398000000    -4.149000000
H    -0.722000000    -5.726000000    -3.789000000
H    -1.515000000    -6.084000000    -5.028000000
O    -5.519000000     1.878000000    -0.341000000
H    -5.742000000     1.898000000    -1.272000000
H    -5.449000000     0.947000000    -0.131000000
O     4.950000000     0.446000000     0.452000000
H     5.096000000     1.242000000     0.963000000
H     4.891000000    -0.252000000     1.105000000
O    -3.004000000    -1.893000000     1.947000000
H    -3.277000000    -1.087000000     1.508000000
H    -2.650000000    -1.600000000     2.787000000
O    -0.762000000    -3.083000000     3.688000000
H    -1.204000000    -2.277000000     3.954000000
H    -0.759000000    -3.051000000     2.731000000
O     6.281000000     0.065000000     4.279000000
H     5.871000000     0.886000000     4.008000000
H     5.899000000    -0.596000000     3.702000000
O    -4.850000000    -5.154000000    -5.784000000
H    -4.861000000    -4.435000000    -6.416000000
H    -4.678000000    -4.730000000    -4.943000000
O    -0.206000000    -5.528000000    -1.202000000
H     0.031000000    -6.452000000    -1.273000000
H     0.266000000    -5.103000000    -1.918000000
