144
-2837.93240
O     2.114000000     5.210000000     2.400000000
H     2.835000000     4.727000000     2.803000000
H     2.535000000     5.770000000     1.747000000
O     5.333000000     1.714000000    -2.679000000
H     4.976000000     1.634000000    -3.563000000
H     4.778000000     1.147000000    -2.144000000
O    -2.874000000    -4.712000000    -2.169000000
H    -2.872000000    -3.755000000    -2.194000000
H    -3.796000000    -4.947000000    -2.060000000
O     0.387000000     6.057000000     4.525000000
H     0.580000000     6.954000000     4.799000000
H     0.982000000     5.898000000     3.791000000
O     2.202000000    -0.744000000    -5.189000000
H     2.098000000    -1.612000000    -5.581000000
H     1.308000000    -0.415000000    -5.097000000
O    -1.746000000    -3.525000000     0.619000000
H    -1.153000000    -4.238000000     0.382000000
H    -1.998000000    -3.135000000    -0.218000000
O    -6.367000000    -0.091000000    -2.410000000
H    -7.001000000     0.363000000    -2.965000000
H    -5.549000000    -0.059000000    -2.905000000
O     2.583000000     2.835000000    -1.637000000
H     2.681000000     2.059000000    -2.188000000
H     2.859000000     3.562000000    -2.196000000
O    -3.719000000     1.986000000     6.269000000
H    -3.287000000     2.415000000     5.530000000
H    -3.268000000     1.146000000     6.355000000
O     4.256000000     4.625000000     4.133000000
H     4.465000000     5.556000000     4.218000000
H     4.675000000     4.216000000     4.891000000
O    -0.177000000     7.241000000     1.602000000
H    -0.419000000     7.344000000     0.681000000
H     0.387000000     6.468000000     1.616000000
O     1.827000000     2.513000000     5.074000000
H     2.169000000     1.833000000     5.655000000
H     2.606000000     2.965000000     4.751000000
O    -4.344000000    -3.271000000     1.437000000
H    -3.408000000    -3.443000000     1.536000000
H    -4.455000000    -2.369000000     1.739000000
O     0.936000000    -2.829000000    -6.605000000
H     1.545000000    -3.034000000    -7.315000000
H     0.103000000    -3.206000000    -6.887000000
O     3.346000000     1.655000000    -4.499000000
H     2.916000000     0.867000000    -4.830000000
H     3.193000000     2.314000000    -5.176000000
O     0.166000000    -1.039000000     4.583000000
H    -0.070000000    -1.947000000     4.773000000
H     1.009000000    -0.914000000     5.020000000
O     2.657000000    -0.606000000     5.779000000
H     3.103000000    -1.386000000     5.448000000
H     3.278000000    -0.218000000     6.395000000
O    -0.132000000     0.809000000     7.222000000
H    -0.160000000     1.648000000     7.680000000
H    -0.060000000     1.043000000     6.297000000
O     4.514000000    -3.511000000    -0.162000000
H     5.282000000    -4.078000000    -0.238000000
H     3.936000000    -3.795000000    -0.871000000
O     0.955000000    -1.989000000     2.017000000
H     0.673000000    -1.865000000     2.923000000
H     0.368000000    -1.432000000     1.505000000
O     6.403000000     1.290000000     3.108000000
H     7.338000000     1.422000000     3.266000000
H     6.247000000     0.375000000     3.342000000
O    -2.980000000     2.765000000     0.288000000
H    -2.114000000     3.161000000     0.385000000
H    -2.843000000     1.839000000     0.489000000
O    -0.627000000     4.176000000     1.136000000
H    -1.334000000     4.621000000     1.603000000
H     0.156000000     4.360000000     1.655000000
O    -0.501000000     3.353000000    -1.410000000
H    -0.560000000     3.653000000    -0.503000000
H     0.391000000     3.017000000    -1.494000000
O     2.888000000    -4.992000000    -2.066000000
H     2.546000000    -4.212000000    -2.504000000
H     3.185000000    -5.557000000    -2.780000000
O    -3.967000000     0.012000000    -3.740000000
H    -3.505000000    -0.826000000    -3.731000000
H    -4.275000000     0.106000000    -4.641000000
O    -5.520000000     3.412000000     1.125000000
H    -5.580000000     2.486000000     0.891000000
H    -4.581000000     3.586000000     1.175000000
O     1.211000000    -3.495000000    -3.991000000
H     0.497000000    -3.158000000    -3.451000000
H     0.951000000    -3.289000000    -4.889000000
O     4.981000000    -0.884000000    -5.234000000
H     4.027000000    -0.917000000    -5.163000000
H     5.182000000    -1.406000000    -6.011000000
O     3.285000000    -2.968000000     4.565000000
H     3.219000000    -2.746000000     3.636000000
H     2.717000000    -3.732000000     4.669000000
O    -5.701000000    -2.964000000    -3.839000000
H    -5.668000000    -3.053000000    -2.886000000
H    -6.511000000    -3.406000000    -4.094000000
O     4.712000000     0.531000000     1.246000000
H     4.146000000    -0.150000000     1.610000000
H     5.304000000     0.758000000     1.963000000
O    -0.560000000    -0.483000000    -5.274000000
H    -0.593000000    -0.837000000    -4.386000000
H    -1.377000000     0.006000000    -5.368000000
O    -5.471000000    -5.399000000    -1.991000000
H    -5.847000000    -4.550000000    -1.758000000
H    -6.161000000    -6.030000000    -1.786000000
O    -3.087000000    -2.390000000    -4.678000000
H    -2.446000000    -2.557000000    -3.986000000
H    -3.930000000    -2.607000000    -4.281000000
O    -0.827000000     2.631000000     4.403000000
H     0.052000000     2.705000000     4.777000000
H    -1.211000000     3.500000000     4.521000000
O     2.004000000     6.424000000    -0.368000000
H     2.298000000     7.258000000    -0.734000000
H     2.399000000     5.761000000    -0.933000000
O     3.550000000    -1.891000000     1.912000000
H     2.606000000    -1.737000000     1.914000000
H     3.716000000    -2.353000000     1.090000000
O    -5.185000000    -2.546000000    -1.073000000
H    -4.931000000    -3.008000000    -0.274000000
H    -4.358000000    -2.243000000    -1.448000000
O    -2.669000000    -1.616000000    -7.233000000
H    -2.617000000    -2.050000000    -6.382000000
H    -3.098000000    -0.780000000    -7.050000000
O    -0.001000000    -5.975000000    -3.441000000
H     0.837000000    -5.514000000    -3.396000000
H    -0.432000000    -5.615000000    -4.216000000
O    -5.577000000     0.755000000     0.328000000
H    -5.629000000     0.495000000    -0.592000000
H    -4.909000000     0.181000000     0.702000000
O     5.547000000    -0.782000000    -1.035000000
H     5.794000000    -0.248000000    -0.280000000
H     5.062000000    -1.517000000    -0.660000000
O    -2.231000000     0.307000000     4.456000000
H    -1.506000000    -0.277000000     4.233000000
H    -1.838000000     1.179000000     4.480000000
O     5.795000000    -1.554000000     3.463000000
H     6.364000000    -2.014000000     2.845000000
H     4.929000000    -1.579000000     3.056000000
O     4.880000000     3.338000000     0.027000000
H     4.339000000     3.059000000    -0.711000000
H     4.944000000     2.562000000     0.584000000
O    -4.071000000    -0.560000000     2.403000000
H    -4.840000000    -0.105000000     2.746000000
H    -3.374000000    -0.353000000     3.025000000
O    -0.137000000    -5.850000000    -0.671000000
H    -0.137000000    -5.772000000    -1.625000000
H     0.788000000    -5.813000000    -0.428000000
