144
-2792.79945
O    -4.500000000    -2.873000000     4.116000000
H    -4.555000000    -2.994000000     3.168000000
H    -3.606000000    -3.134000000     4.339000000
O    -6.677000000    -4.345000000     1.621000000
H    -6.542000000    -4.984000000     2.321000000
H    -5.801000000    -4.007000000     1.433000000
O     3.004000000     5.039000000     0.468000000
H     2.993000000     5.896000000     0.042000000
H     2.253000000     4.576000000     0.095000000
O    -3.915000000    -3.643000000     1.552000000
H    -3.203000000    -4.283000000     1.577000000
H    -3.680000000    -3.051000000     0.837000000
O     1.368000000    -6.956000000    -0.047000000
H     0.765000000    -6.928000000    -0.790000000
H     1.245000000    -6.115000000     0.393000000
O     3.959000000     0.700000000    -2.435000000
H     3.119000000     1.139000000    -2.305000000
H     3.760000000    -0.232000000    -2.341000000
O    -3.780000000    -4.565000000    -4.116000000
H    -4.491000000    -4.072000000    -4.526000000
H    -4.116000000    -5.460000000    -4.053000000
O    -3.497000000     1.467000000     4.726000000
H    -3.431000000     1.239000000     5.653000000
H    -2.939000000     0.829000000     4.281000000
O    -5.071000000     4.133000000     1.249000000
H    -5.640000000     3.363000000     1.272000000
H    -4.354000000     3.884000000     0.665000000
O    -5.404000000     0.503000000    -1.097000000
H    -4.778000000    -0.047000000    -0.626000000
H    -5.043000000     0.573000000    -1.981000000
O    -3.883000000     1.103000000    -3.053000000
H    -3.443000000     1.882000000    -3.395000000
H    -3.923000000     0.504000000    -3.799000000
O    -0.864000000     2.649000000    -1.830000000
H    -0.669000000     2.253000000    -2.679000000
H    -1.165000000     1.919000000    -1.289000000
O    -0.315000000    -7.058000000    -2.194000000
H    -1.089000000    -6.502000000    -2.104000000
H    -0.665000000    -7.920000000    -2.419000000
O     4.876000000     4.735000000     2.669000000
H     4.301000000     4.789000000     1.905000000
H     5.228000000     3.845000000     2.641000000
O     1.338000000     6.896000000     2.429000000
H     1.942000000     6.291000000     1.998000000
H     1.834000000     7.711000000     2.510000000
O    -1.371000000    -0.502000000     3.973000000
H    -0.878000000    -1.058000000     3.370000000
H    -1.783000000    -1.114000000     4.582000000
O     5.865000000    -0.334000000     0.610000000
H     5.064000000    -0.782000000     0.883000000
H     6.258000000    -0.920000000    -0.037000000
O     2.201000000    -3.724000000    -0.161000000
H     2.255000000    -4.094000000    -1.042000000
H     1.352000000    -4.018000000     0.171000000
O    -1.774000000    -1.504000000    -3.828000000
H    -1.917000000    -1.577000000    -2.885000000
H    -0.978000000    -0.979000000    -3.910000000
O    -7.510000000    -1.232000000    -2.127000000
H    -6.845000000    -0.665000000    -1.735000000
H    -7.029000000    -2.015000000    -2.395000000
O    -2.607000000     3.752000000     3.574000000
H    -3.121000000     2.949000000     3.659000000
H    -1.993000000     3.722000000     4.307000000
O    -1.775000000     5.174000000     1.392000000
H    -2.235000000     4.816000000     2.152000000
H    -2.265000000     4.844000000     0.639000000
O     5.207000000     3.521000000    -1.452000000
H     5.174000000     2.607000000    -1.167000000
H     4.535000000     3.959000000    -0.930000000
O     1.594000000    -4.845000000    -2.812000000
H     0.944000000    -5.547000000    -2.777000000
H     1.764000000    -4.722000000    -3.746000000
O     0.978000000    -0.404000000    -4.299000000
H     1.323000000    -1.119000000    -4.833000000
H     1.750000000    -0.021000000    -3.883000000
O    -6.690000000     2.060000000     0.843000000
H    -6.339000000     1.734000000     0.014000000
H    -7.069000000     1.288000000     1.263000000
O     6.454000000     0.916000000    -3.381000000
H     5.526000000     0.957000000    -3.152000000
H     6.786000000     0.156000000    -2.901000000
O     0.349000000     4.352000000    -0.063000000
H    -0.195000000     4.724000000     0.631000000
H    -0.239000000     3.769000000    -0.542000000
O     1.705000000     3.629000000     5.128000000
H     2.563000000     3.614000000     5.553000000
H     1.561000000     2.725000000     4.847000000
O    -4.904000000    -2.110000000    -2.510000000
H    -4.397000000    -2.529000000    -3.205000000
H    -4.329000000    -2.135000000    -1.745000000
O     3.089000000    -2.057000000    -2.706000000
H     2.444000000    -2.604000000    -2.256000000
H     3.140000000    -2.425000000    -3.589000000
O    -4.694000000    -5.862000000    -0.549000000
H    -3.776000000    -5.627000000    -0.683000000
H    -5.186000000    -5.168000000    -0.988000000
O    -0.059000000    -2.216000000     2.359000000
H     0.331000000    -1.637000000     1.704000000
H     0.051000000    -3.095000000     1.996000000
O     1.109000000     0.956000000     4.760000000
H     0.413000000     0.748000000     4.136000000
H     1.735000000     0.237000000     4.668000000
O     1.945000000     2.580000000    -2.608000000
H     1.576000000     2.357000000    -3.463000000
H     1.337000000     3.224000000    -2.245000000
O    -2.290000000    -6.091000000     1.451000000
H    -1.835000000    -6.485000000     2.196000000
H    -2.883000000    -6.777000000     1.144000000
O     5.405000000    -3.113000000    -0.512000000
H     4.542000000    -3.419000000    -0.790000000
H     5.933000000    -3.909000000    -0.454000000
O    -0.269000000    -4.761000000     0.223000000
H    -0.569000000    -4.832000000    -0.683000000
H    -0.926000000    -5.238000000     0.731000000
O    -2.183000000    -3.441000000    -6.204000000
H    -1.230000000    -3.476000000    -6.119000000
H    -2.502000000    -3.389000000    -5.303000000
O    -6.642000000    -3.955000000    -1.444000000
H    -6.081000000    -3.204000000    -1.638000000
H    -6.928000000    -3.814000000    -0.541000000
O    -5.713000000    -1.080000000     1.856000000
H    -5.346000000    -1.699000000     2.487000000
H    -5.044000000    -1.006000000     1.175000000
O     4.450000000    -5.044000000    -2.190000000
H     3.605000000    -4.750000000    -2.530000000
H     5.083000000    -4.772000000    -2.854000000
O    -3.303000000     4.022000000    -0.702000000
H    -3.306000000     4.821000000    -1.230000000
H    -3.269000000     3.312000000    -1.343000000
O    -2.200000000    -5.199000000    -2.107000000
H    -2.691000000    -5.062000000    -2.918000000
H    -2.324000000    -4.388000000    -1.613000000
O     5.279000000     0.723000000     4.104000000
H     4.761000000     1.343000000     4.618000000
H     5.372000000     1.142000000     3.248000000
O     5.847000000     2.282000000     1.727000000
H     6.488000000     2.824000000     1.266000000
H     5.936000000     1.416000000     1.330000000
O     3.787000000    -2.002000000     1.743000000
H     4.110000000    -2.818000000     2.126000000
H     3.279000000    -2.280000000     0.981000000
O     2.959000000    -0.799000000     4.214000000
H     2.946000000    -1.366000000     3.442000000
H     3.888000000    -0.627000000     4.368000000
