144
-2824.78077
O    -0.917000000     1.588000000     4.462000000
H    -0.033000000     1.915000000     4.294000000
H    -1.480000000     2.355000000     4.355000000
O    -0.467000000    -3.179000000     3.264000000
H     0.288000000    -2.744000000     2.868000000
H    -0.979000000    -2.468000000     3.649000000
O     6.333000000     1.871000000     2.284000000
H     6.713000000     2.737000000     2.136000000
H     6.155000000     1.845000000     3.224000000
O     4.307000000     0.606000000     6.645000000
H     3.661000000     0.572000000     7.351000000
H     3.850000000     0.243000000     5.886000000
O     4.152000000    -5.422000000     1.661000000
H     4.349000000    -6.281000000     2.036000000
H     3.217000000    -5.457000000     1.460000000
O     2.316000000    -2.361000000     7.113000000
H     1.379000000    -2.174000000     7.054000000
H     2.549000000    -2.134000000     8.013000000
O    -1.533000000    -1.380000000    -4.310000000
H    -1.623000000    -0.491000000    -3.966000000
H    -2.028000000    -1.924000000    -3.698000000
O    -3.079000000     3.283000000     3.837000000
H    -3.717000000     3.997000000     3.818000000
H    -3.589000000     2.501000000     3.627000000
O    -1.365000000    -5.883000000     2.425000000
H    -1.113000000    -5.032000000     2.784000000
H    -1.422000000    -6.458000000     3.188000000
O    -7.501000000     1.474000000    -0.418000000
H    -8.223000000     1.256000000    -1.008000000
H    -7.928000000     1.829000000     0.362000000
O    -5.418000000     2.773000000    -1.492000000
H    -4.755000000     2.096000000    -1.633000000
H    -6.234000000     2.287000000    -1.375000000
O    -3.900000000     3.859000000    -6.756000000
H    -4.380000000     4.095000000    -5.962000000
H    -3.724000000     2.923000000    -6.659000000
O    -2.177000000    -1.279000000     4.283000000
H    -1.895000000    -0.377000000     4.135000000
H    -3.124000000    -1.218000000     4.406000000
O    -0.315000000    -2.969000000    -1.303000000
H    -0.071000000    -2.186000000    -0.810000000
H    -1.183000000    -2.770000000    -1.655000000
O     2.644000000    -0.819000000     4.975000000
H     2.894000000    -1.468000000     4.319000000
H     2.567000000    -1.317000000     5.789000000
O    -3.992000000    -2.262000000    -0.122000000
H    -3.926000000    -2.690000000     0.731000000
H    -4.288000000    -1.374000000     0.077000000
O     3.140000000     2.071000000    -2.069000000
H     3.110000000     1.377000000    -2.728000000
H     3.837000000     1.803000000    -1.471000000
O    -0.925000000     3.894000000     2.318000000
H    -1.811000000     3.975000000     2.671000000
H    -0.973000000     3.152000000     1.716000000
O     3.710000000    -2.946000000     3.262000000
H     4.484000000    -2.396000000     3.389000000
H     3.970000000    -3.573000000     2.587000000
O     0.973000000     3.994000000    -4.286000000
H     1.686000000     3.709000000    -3.714000000
H     0.185000000     3.906000000    -3.748000000
O     1.522000000    -1.596000000    -4.051000000
H     1.352000000    -1.718000000    -4.985000000
H     0.660000000    -1.424000000    -3.671000000
O    -6.923000000     0.302000000    -5.181000000
H    -7.581000000     0.965000000    -4.970000000
H    -6.241000000     0.423000000    -4.521000000
O    -0.227000000    -1.741000000     6.898000000
H    -0.500000000    -1.955000000     7.789000000
H    -0.966000000    -2.006000000     6.350000000
O    -4.978000000     1.483000000     3.278000000
H    -5.891000000     1.766000000     3.232000000
H    -4.929000000     0.733000000     2.685000000
O     5.975000000    -1.173000000     3.169000000
H     6.838000000    -1.078000000     2.766000000
H     5.443000000    -0.492000000     2.757000000
O     0.332000000     1.367000000    -5.839000000
H     0.597000000     2.286000000    -5.808000000
H     1.008000000     0.941000000    -6.367000000
O    -6.317000000    -1.927000000    -1.848000000
H    -7.004000000    -1.960000000    -2.514000000
H    -6.787000000    -1.790000000    -1.025000000
O    -0.684000000    -4.663000000     5.440000000
H    -0.750000000    -4.054000000     4.705000000
H     0.234000000    -4.934000000     5.445000000
O     4.565000000     3.822000000     3.319000000
H     4.822000000     3.726000000     4.235000000
H     4.397000000     4.758000000     3.213000000
O     3.681000000    -4.479000000    -1.829000000
H     3.326000000    -4.557000000    -0.943000000
H     3.819000000    -5.382000000    -2.112000000
O     4.633000000     1.585000000     0.345000000
H     5.169000000     1.033000000    -0.224000000
H     5.228000000     1.858000000     1.044000000
O    -4.871000000     0.058000000    -3.461000000
H    -4.005000000     0.337000000    -3.164000000
H    -5.215000000    -0.466000000    -2.738000000
O     3.384000000     0.316000000    -4.120000000
H     3.938000000    -0.179000000    -4.724000000
H     2.532000000    -0.117000000    -4.168000000
O    -2.831000000    -2.649000000    -2.350000000
H    -3.192000000    -2.338000000    -1.521000000
H    -3.182000000    -3.534000000    -2.448000000
O    -6.173000000     4.004000000     1.660000000
H    -6.212000000     3.231000000     2.224000000
H    -5.259000000     4.049000000     1.378000000
O     1.846000000    -5.020000000     4.302000000
H     2.367000000    -4.229000000     4.167000000
H     1.565000000    -5.275000000     3.423000000
O    -4.939000000     0.115000000     0.885000000
H    -4.364000000     0.472000000     0.208000000
H    -5.706000000     0.689000000     0.874000000
O     1.164000000     3.810000000    -0.947000000
H     1.800000000     3.301000000    -1.450000000
H     1.344000000     3.583000000    -0.035000000
O     6.795000000     0.683000000    -1.465000000
H     6.692000000    -0.175000000    -1.876000000
H     7.612000000     0.615000000    -0.970000000
O    -2.549000000     1.469000000    -5.842000000
H    -1.672000000     1.217000000    -6.131000000
H    -2.555000000     1.283000000    -4.903000000
O     2.500000000     2.685000000     1.649000000
H     3.049000000     3.394000000     1.982000000
H     3.116000000     2.078000000     1.239000000
O     1.631000000     1.910000000     4.417000000
H     1.857000000     2.133000000     3.514000000
H     1.990000000     1.032000000     4.545000000
O    -4.862000000     4.205000000    -4.094000000
H    -5.014000000     3.654000000    -3.326000000
H    -4.657000000     5.067000000    -3.734000000
O    -1.265000000     5.036000000    -1.445000000
H    -0.447000000     4.541000000    -1.411000000
H    -1.670000000     4.773000000    -2.272000000
O    -3.884000000    -1.007000000    -6.074000000
H    -4.353000000    -0.673000000    -5.309000000
H    -3.078000000    -0.493000000    -6.105000000
O    -3.538000000     3.844000000     0.466000000
H    -2.674000000     3.945000000     0.066000000
H    -4.040000000     3.338000000    -0.173000000
O    -2.198000000     3.550000000    -3.542000000
H    -3.125000000     3.777000000    -3.622000000
H    -2.199000000     2.663000000    -3.184000000
O    -0.870000000    -2.797000000    -6.695000000
H    -1.317000000    -3.611000000    -6.928000000
H    -1.285000000    -2.522000000    -5.877000000
