144
-2814.74260
O     0.408000000     2.972000000     4.838000000
H     0.608000000     3.895000000     4.678000000
H    -0.543000000     2.948000000     4.939000000
O     3.329000000    -2.946000000     2.158000000
H     4.052000000    -2.966000000     1.531000000
H     2.769000000    -2.231000000     1.855000000
O     6.428000000    -0.853000000     2.985000000
H     6.197000000    -0.700000000     2.069000000
H     5.645000000    -0.602000000     3.475000000
O     1.918000000    -0.408000000    -6.402000000
H     1.261000000     0.045000000    -5.871000000
H     2.560000000     0.269000000    -6.616000000
O     5.648000000     0.135000000     0.355000000
H     5.664000000    -0.168000000    -0.553000000
H     5.233000000     0.997000000     0.312000000
O    -1.722000000     4.332000000     0.997000000
H    -2.318000000     3.635000000     0.723000000
H    -1.781000000     4.985000000     0.300000000
O    -3.097000000     0.917000000     4.018000000
H    -2.606000000     1.326000000     4.730000000
H    -2.796000000     0.009000000     4.010000000
O     6.435000000    -3.691000000     2.581000000
H     6.368000000    -2.744000000     2.702000000
H     6.031000000    -3.853000000     1.729000000
O    -5.557000000     3.646000000    -0.270000000
H    -4.772000000     3.100000000    -0.221000000
H    -6.118000000     3.322000000     0.435000000
O     4.217000000     2.486000000    -2.709000000
H     4.252000000     3.426000000    -2.884000000
H     5.116000000     2.251000000    -2.480000000
O    -6.719000000    -1.448000000    -3.725000000
H    -5.915000000    -1.360000000    -4.238000000
H    -6.506000000    -2.099000000    -3.056000000
O     3.725000000     1.908000000     4.205000000
H     2.852000000     1.707000000     4.542000000
H     3.638000000     1.832000000     3.255000000
O     3.711000000    -1.404000000     5.855000000
H     3.418000000    -1.072000000     6.704000000
H     3.177000000    -0.932000000     5.216000000
O     1.973000000     5.028000000    -1.694000000
H     1.845000000     4.277000000    -1.114000000
H     1.873000000     5.791000000    -1.125000000
O    -1.961000000     1.759000000     6.383000000
H    -2.545000000     1.548000000     7.112000000
H    -1.496000000     2.546000000     6.670000000
O     3.870000000     1.566000000    -5.673000000
H     4.324000000     1.473000000    -4.836000000
H     3.965000000     2.492000000    -5.896000000
O     3.448000000    -5.813000000    -2.859000000
H     3.877000000    -6.668000000    -2.849000000
H     2.937000000    -5.791000000    -2.050000000
O    -4.846000000     0.454000000     1.993000000
H    -4.549000000     0.573000000     2.895000000
H    -4.309000000     1.060000000     1.482000000
O    -1.601000000    -1.477000000     3.508000000
H    -1.396000000    -1.642000000     4.428000000
H    -0.807000000    -1.729000000     3.036000000
O    -1.245000000     5.504000000    -1.570000000
H    -1.604000000     4.735000000    -2.014000000
H    -0.296000000     5.382000000    -1.610000000
O    -4.881000000    -0.876000000    -0.660000000
H    -4.970000000    -0.413000000     0.173000000
H    -4.400000000    -0.269000000    -1.222000000
O    -7.288000000     1.245000000    -3.132000000
H    -6.393000000     1.518000000    -2.930000000
H    -7.239000000     0.291000000    -3.197000000
O    -0.042000000     0.825000000    -4.593000000
H     0.569000000     0.968000000    -3.870000000
H     0.060000000     1.597000000    -5.150000000
O     3.931000000    -1.506000000    -4.690000000
H     3.240000000    -1.168000000    -5.260000000
H     3.587000000    -2.337000000    -4.363000000
O    -3.794000000     3.356000000     3.054000000
H    -3.626000000     3.453000000     2.117000000
H    -3.587000000     2.440000000     3.240000000
O     4.160000000    -5.489000000     2.419000000
H     3.895000000    -4.592000000     2.623000000
H     5.105000000    -5.500000000     2.573000000
O     3.262000000     2.164000000     1.251000000
H     2.497000000     2.127000000     0.677000000
H     3.655000000     3.018000000     1.073000000
O     5.468000000    -1.255000000    -1.850000000
H     6.247000000    -1.443000000    -2.372000000
H     4.736000000    -1.511000000    -2.411000000
O    -4.582000000     2.014000000    -3.554000000
H    -4.255000000     2.002000000    -2.655000000
H    -4.177000000     1.250000000    -3.966000000
O    -0.577000000    -4.553000000    -3.456000000
H    -0.564000000    -5.246000000    -2.796000000
H    -1.356000000    -4.037000000    -3.245000000
O     6.540000000     1.435000000    -2.607000000
H     6.561000000     0.658000000    -3.166000000
H     7.307000000     1.343000000    -2.041000000
O     1.347000000     0.278000000     5.157000000
H     1.170000000    -0.243000000     5.941000000
H     0.624000000     0.903000000     5.116000000
O    -0.921000000     2.935000000    -2.401000000
H    -0.114000000     2.438000000    -2.268000000
H    -1.616000000     2.279000000    -2.361000000
O    -1.858000000     4.562000000    -4.552000000
H    -1.624000000     3.959000000    -5.257000000
H    -1.679000000     4.073000000    -3.749000000
O    -7.058000000     2.378000000     1.512000000
H    -6.315000000     1.957000000     1.944000000
H    -7.823000000     1.901000000     1.833000000
O     0.812000000     3.020000000     0.006000000
H     0.540000000     3.554000000     0.752000000
H     0.294000000     2.219000000     0.083000000
O     2.611000000     5.152000000     2.606000000
H     2.649000000     4.196000000     2.652000000
H     3.266000000     5.448000000     3.238000000
O    -3.041000000    -3.626000000    -0.260000000
H    -3.058000000    -3.058000000     0.510000000
H    -3.206000000    -3.037000000    -0.996000000
O    -3.434000000    -2.995000000     2.386000000
H    -3.396000000    -3.780000000     2.933000000
H    -2.845000000    -2.375000000     2.816000000
O     2.438000000    -5.091000000    -0.198000000
H     1.657000000    -4.684000000     0.177000000
H     3.049000000    -5.157000000     0.536000000
O     5.169000000    -3.360000000     0.125000000
H     5.246000000    -4.108000000    -0.467000000
H     5.397000000    -2.603000000    -0.414000000
O    -2.215000000     5.637000000     3.678000000
H    -2.054000000     5.355000000     2.778000000
H    -2.941000000     5.090000000     3.976000000
O    -4.159000000     5.912000000     0.563000000
H    -4.670000000     6.447000000     1.171000000
H    -4.638000000     5.084000000     0.513000000
O    -2.875000000    -0.523000000    -4.811000000
H    -2.838000000    -0.909000000    -5.686000000
H    -2.062000000    -0.023000000    -4.735000000
O     2.293000000    -3.497000000    -3.748000000
H     1.359000000    -3.572000000    -3.552000000
H     2.695000000    -4.232000000    -3.284000000
O     1.711000000     1.674000000    -2.795000000
H     2.062000000     1.195000000    -2.044000000
H     2.459000000     2.165000000    -3.137000000
O    -6.063000000     4.646000000    -2.717000000
H    -5.640000000     3.933000000    -3.196000000
H    -5.864000000     4.467000000    -1.798000000
O    -7.061000000    -2.616000000    -0.153000000
H    -6.699000000    -1.762000000    -0.387000000
H    -6.762000000    -2.766000000     0.744000000
