144
-2816.44253
O     2.481000000     2.769000000    -0.756000000
H     2.283000000     2.902000000     0.171000000
H     2.059000000     1.939000000    -0.975000000
O    -6.268000000    -1.347000000    -2.855000000
H    -5.588000000    -0.986000000    -2.286000000
H    -7.065000000    -0.881000000    -2.600000000
O     1.437000000     0.240000000    -6.376000000
H     0.566000000     0.608000000    -6.225000000
H     1.631000000     0.452000000    -7.289000000
O     5.669000000     1.000000000    -2.452000000
H     5.187000000     0.252000000    -2.805000000
H     6.584000000     0.718000000    -2.454000000
O    -0.500000000    -1.813000000    -5.597000000
H    -1.249000000    -1.891000000    -5.006000000
H    -0.532000000    -0.907000000    -5.905000000
O     0.053000000    -4.819000000     1.811000000
H    -0.127000000    -4.424000000     2.664000000
H     0.906000000    -4.466000000     1.559000000
O    -1.892000000     4.255000000    -0.573000000
H    -2.618000000     3.640000000    -0.677000000
H    -1.159000000     3.713000000    -0.281000000
O    -6.464000000     2.465000000     3.623000000
H    -5.789000000     2.443000000     2.944000000
H    -6.510000000     1.564000000     3.943000000
O    -4.991000000     3.387000000    -2.277000000
H    -4.250000000     2.853000000    -1.992000000
H    -5.605000000     2.760000000    -2.661000000
O    -3.492000000    -0.517000000    -6.967000000
H    -3.336000000    -0.314000000    -6.045000000
H    -2.905000000     0.070000000    -7.444000000
O     2.493000000    -5.630000000     3.214000000
H     2.990000000    -6.372000000     3.558000000
H     1.587000000    -5.812000000     3.465000000
O     5.511000000     1.298000000     0.944000000
H     5.136000000     1.329000000     0.064000000
H     5.573000000     0.364000000     1.145000000
O    -1.013000000     1.813000000     3.804000000
H    -1.334000000     0.918000000     3.697000000
H    -0.171000000     1.715000000     4.249000000
O     1.447000000    -3.626000000    -1.991000000
H     1.439000000    -3.585000000    -2.947000000
H     2.286000000    -3.238000000    -1.742000000
O     3.179000000    -4.568000000     0.587000000
H     3.264000000    -4.538000000     1.540000000
H     3.327000000    -5.487000000     0.362000000
O    -5.321000000     0.282000000    -0.750000000
H    -6.106000000     0.715000000    -0.413000000
H    -4.674000000     0.983000000    -0.825000000
O    -4.290000000     6.029000000    -2.923000000
H    -4.838000000     5.249000000    -2.840000000
H    -3.460000000     5.703000000    -3.271000000
O    -3.136000000    -0.406000000     3.924000000
H    -3.800000000    -0.408000000     3.235000000
H    -3.124000000    -1.306000000     4.248000000
O    -3.495000000     1.085000000     6.164000000
H    -3.415000000     0.538000000     5.382000000
H    -2.626000000     1.057000000     6.565000000
O    -5.011000000     0.038000000     2.095000000
H    -4.908000000    -0.001000000     1.144000000
H    -5.713000000    -0.584000000     2.285000000
O    -0.635000000     1.282000000    -4.917000000
H    -1.118000000     1.349000000    -4.093000000
H    -1.170000000     1.765000000    -5.547000000
O     2.940000000     1.950000000    -4.556000000
H     2.331000000     1.298000000    -4.904000000
H     3.406000000     1.493000000    -3.856000000
O    -4.294000000     3.753000000     1.643000000
H    -3.695000000     4.491000000     1.527000000
H    -4.084000000     3.409000000     2.511000000
O     5.984000000    -1.340000000     1.275000000
H     5.193000000    -1.583000000     1.755000000
H     6.131000000    -2.068000000     0.671000000
O     2.342000000     3.488000000     2.241000000
H     2.583000000     4.370000000     2.526000000
H     3.082000000     2.941000000     2.505000000
O     0.682000000     4.622000000    -1.620000000
H     0.012000000     4.834000000    -0.971000000
H     1.473000000     4.464000000    -1.105000000
O    -1.855000000     4.909000000    -3.438000000
H    -1.744000000     4.930000000    -2.488000000
H    -1.928000000     3.979000000    -3.650000000
O     3.643000000    -0.658000000    -3.416000000
H     3.430000000    -0.795000000    -4.340000000
H     3.615000000    -1.534000000    -3.032000000
O    -1.352000000    -3.235000000    -2.826000000
H    -0.661000000    -2.736000000    -3.262000000
H    -0.929000000    -4.054000000    -2.568000000
O     4.713000000     2.762000000     3.801000000
H     5.413000000     3.283000000     3.406000000
H     4.992000000     1.855000000     3.677000000
O    -7.613000000     1.591000000     0.509000000
H    -7.375000000     2.473000000     0.221000000
H    -7.837000000     1.694000000     1.434000000
O    -6.561000000     4.056000000    -0.053000000
H    -6.306000000     3.835000000    -0.949000000
H    -5.736000000     4.081000000     0.432000000
O    -0.603000000    -2.963000000     4.346000000
H    -1.498000000    -3.026000000     4.680000000
H    -0.050000000    -3.102000000     5.115000000
O     3.914000000    -3.482000000     3.961000000
H     3.170000000    -4.038000000     3.731000000
H     4.676000000    -4.056000000     3.879000000
O    -3.875000000     0.810000000    -4.346000000
H    -3.304000000     1.176000000    -3.670000000
H    -4.761000000     0.958000000    -4.015000000
O     0.500000000    -6.001000000    -0.974000000
H     1.166000000    -5.471000000    -1.413000000
H     0.349000000    -5.555000000    -0.141000000
O     4.690000000    -1.769000000     5.816000000
H     3.932000000    -1.273000000     6.124000000
H     4.333000000    -2.376000000     5.169000000
O    -1.981000000    -2.900000000    -0.235000000
H    -1.606000000    -2.927000000    -1.115000000
H    -1.400000000    -2.319000000     0.256000000
O    -3.224000000     3.411000000     4.158000000
H    -2.749000000     4.124000000     4.585000000
H    -2.584000000     2.702000000     4.094000000
O    -0.296000000     3.317000000     1.255000000
H     0.455000000     3.449000000     1.834000000
H    -0.768000000     2.578000000     1.639000000
O    -3.059000000    -1.751000000    -4.347000000
H    -2.572000000    -1.946000000    -3.547000000
H    -3.314000000    -0.833000000    -4.255000000
O    -3.267000000    -3.615000000     4.612000000
H    -3.352000000    -3.817000000     3.680000000
H    -3.882000000    -4.208000000     5.043000000
O     0.628000000    -0.331000000     4.728000000
H     0.314000000    -1.181000000     4.420000000
H     1.416000000    -0.535000000     5.231000000
O     4.098000000    -2.895000000    -1.911000000
H     4.851000000    -3.375000000    -2.254000000
H     3.922000000    -3.301000000    -1.062000000
O     6.185000000    -4.753000000     2.634000000
H     6.462000000    -5.585000000     2.249000000
H     6.076000000    -4.167000000     1.885000000
O    -2.819000000     2.841000000    -6.052000000
H    -3.506000000     2.245000000    -5.755000000
H    -2.973000000     2.935000000    -6.992000000
O     1.322000000     4.211000000    -4.354000000
H     1.901000000     3.449000000    -4.362000000
H     0.940000000     4.213000000    -3.477000000
O    -6.644000000     1.584000000    -3.353000000
H    -7.522000000     1.959000000    -3.281000000
H    -6.654000000     1.108000000    -4.184000000
