144
-2769.00607
O    -1.052000000     3.765000000     3.076000000
H    -1.411000000     3.445000000     3.904000000
H    -0.320000000     4.325000000     3.334000000
O     1.770000000    -2.242000000    -4.723000000
H     2.196000000    -1.435000000    -5.013000000
H     2.472000000    -2.893000000    -4.713000000
O    -1.953000000     4.917000000    -5.116000000
H    -2.716000000     5.054000000    -4.556000000
H    -1.698000000     4.008000000    -4.957000000
O     4.717000000     0.393000000     2.484000000
H     5.660000000     0.402000000     2.647000000
H     4.338000000     0.046000000     3.291000000
O     1.546000000    -4.968000000    -0.609000000
H     0.945000000    -4.228000000    -0.692000000
H     1.721000000    -5.030000000     0.330000000
O    -1.414000000     4.357000000     0.251000000
H    -2.056000000     3.680000000     0.041000000
H    -1.021000000     4.068000000     1.075000000
O    -3.880000000     3.836000000    -3.475000000
H    -4.556000000     3.246000000    -3.808000000
H    -3.450000000     3.338000000    -2.780000000
O     4.793000000    -0.254000000    -1.075000000
H     4.728000000    -0.130000000    -0.129000000
H     3.916000000    -0.059000000    -1.404000000
O    -5.419000000    -1.362000000    -3.280000000
H    -5.625000000    -0.886000000    -2.475000000
H    -4.545000000    -1.056000000    -3.522000000
O    -3.899000000     6.262000000    -0.587000000
H    -3.660000000     5.341000000    -0.689000000
H    -4.619000000     6.393000000    -1.203000000
O    -3.950000000     4.757000000     2.515000000
H    -3.214000000     4.416000000     3.023000000
H    -3.686000000     5.646000000     2.276000000
O     2.959000000     1.662000000    -1.850000000
H     3.230000000     2.340000000    -1.231000000
H     2.016000000     1.573000000    -1.710000000
O     3.290000000    -7.330000000     0.135000000
H     3.013000000    -6.746000000    -0.571000000
H     3.046000000    -6.868000000     0.937000000
O     5.553000000    -0.773000000    -3.919000000
H     5.143000000    -0.605000000    -3.070000000
H     4.996000000    -1.437000000    -4.326000000
O     1.787000000    -6.839000000    -2.426000000
H     1.851000000    -6.362000000    -3.254000000
H     1.369000000    -6.221000000    -1.827000000
O    -1.339000000     6.714000000    -2.859000000
H    -1.838000000     5.944000000    -3.132000000
H    -1.171000000     6.572000000    -1.927000000
O    -2.749000000    -2.384000000    -1.479000000
H    -3.515000000    -2.325000000    -0.907000000
H    -2.720000000    -1.539000000    -1.928000000
O     2.996000000     0.048000000    -5.566000000
H     3.038000000     1.001000000    -5.648000000
H     3.610000000    -0.276000000    -6.224000000
O    -5.340000000     3.417000000     0.188000000
H    -4.673000000     2.757000000     0.000000000
H    -5.071000000     3.798000000     1.024000000
O    -7.787000000     5.029000000     0.217000000
H    -6.868000000     4.766000000     0.269000000
H    -8.101000000     4.642000000    -0.600000000
O     2.373000000     2.753000000     2.462000000
H     2.720000000     3.373000000     1.820000000
H     2.928000000     1.978000000     2.370000000
O     6.058000000     1.978000000    -2.197000000
H     5.789000000     1.929000000    -3.115000000
H     5.968000000     1.082000000    -1.873000000
O     4.827000000    -3.291000000    -0.866000000
H     3.916000000    -3.115000000    -1.103000000
H     5.266000000    -2.446000000    -0.957000000
O    -2.976000000    -0.201000000    -3.411000000
H    -2.662000000     0.529000000    -2.877000000
H    -3.001000000     0.148000000    -4.302000000
O    -0.985000000    -3.740000000    -0.409000000
H    -1.468000000    -3.020000000    -0.813000000
H    -0.817000000    -3.443000000     0.486000000
O    -3.446000000    -0.221000000     3.854000000
H    -3.819000000    -1.044000000     3.539000000
H    -4.205000000     0.310000000     4.095000000
O    -1.053000000     2.475000000    -4.110000000
H    -1.483000000     2.142000000    -3.322000000
H    -1.268000000     1.835000000    -4.788000000
O    -1.365000000     1.206000000     5.411000000
H    -1.917000000     0.630000000     4.882000000
H    -1.846000000     2.033000000     5.444000000
O     1.098000000     4.233000000    -3.994000000
H     1.845000000     3.666000000    -3.806000000
H     0.355000000     3.634000000    -4.065000000
O    -7.756000000     1.867000000     0.113000000
H    -6.841000000     2.127000000     0.222000000
H    -8.243000000     2.459000000     0.687000000
O     1.282000000     3.581000000    -0.415000000
H     0.426000000     4.008000000    -0.391000000
H     1.368000000     3.168000000     0.444000000
O     2.921000000    -6.202000000     2.939000000
H     2.411000000    -6.248000000     3.748000000
H     3.520000000    -5.468000000     3.074000000
O    -5.043000000    -1.528000000     0.277000000
H    -4.761000000    -1.170000000     1.119000000
H    -4.961000000    -2.476000000     0.380000000
O    -0.021000000    -2.493000000     4.678000000
H     0.047000000    -1.789000000     5.323000000
H    -0.595000000    -3.139000000     5.088000000
O    -3.618000000     2.986000000     5.280000000
H    -4.446000000     2.542000000     5.462000000
H    -3.677000000     3.811000000     5.761000000
O     0.967000000     2.733000000     5.163000000
H     0.412000000     1.953000000     5.181000000
H     1.183000000     2.852000000     4.238000000
O     6.672000000    -4.897000000     0.232000000
H     7.396000000    -4.791000000    -0.385000000
H     5.962000000    -4.374000000    -0.140000000
O     2.203000000    -4.135000000     4.963000000
H     1.920000000    -3.865000000     5.836000000
H     1.599000000    -3.692000000     4.367000000
O     7.296000000    -1.332000000     1.146000000
H     7.298000000    -1.420000000     0.193000000
H     7.993000000    -0.702000000     1.329000000
O    -5.770000000     5.582000000    -2.443000000
H    -6.703000000     5.403000000    -2.560000000
H    -5.332000000     4.807000000    -2.794000000
O    -0.678000000     7.066000000     0.615000000
H    -1.104000000     7.507000000     1.351000000
H    -1.320000000     6.421000000     0.319000000
O    -2.428000000     0.660000000    -5.927000000
H    -3.133000000     1.063000000    -6.434000000
H    -1.766000000     0.429000000    -6.579000000
O    -6.378000000     3.545000000     3.340000000
H    -5.727000000     2.934000000     3.685000000
H    -5.867000000     4.181000000     2.839000000
O     0.588000000    -4.965000000    -4.198000000
H    -0.258000000    -5.088000000    -3.767000000
H     0.825000000    -4.058000000    -4.005000000
O    -2.366000000    -2.234000000    -5.631000000
H    -2.645000000    -1.389000000    -5.983000000
H    -2.050000000    -2.035000000    -4.750000000
O     3.429000000     2.619000000    -4.491000000
H     4.342000000     2.628000000    -4.779000000
H     3.393000000     1.928000000    -3.830000000
O    -5.800000000     2.163000000    -4.081000000
H    -5.571000000     2.131000000    -5.010000000
H    -6.757000000     2.155000000    -4.069000000
O    -0.650000000    -2.937000000     2.095000000
H    -0.419000000    -2.862000000     3.021000000
H    -0.958000000    -2.064000000     1.853000000
