144
-2826.43611
O    -2.380000000     5.073000000     4.028000000
H    -1.677000000     4.768000000     3.453000000
H    -3.177000000     4.705000000     3.647000000
O     4.315000000     1.123000000     4.402000000
H     4.653000000     0.559000000     5.097000000
H     4.251000000     0.551000000     3.638000000
O     1.729000000     3.118000000    -2.356000000
H     1.117000000     3.590000000    -2.921000000
H     1.692000000     2.213000000    -2.667000000
O     6.848000000    -2.898000000     2.374000000
H     6.199000000    -2.820000000     3.074000000
H     6.955000000    -2.005000000     2.046000000
O    -4.095000000     2.850000000    -1.104000000
H    -3.847000000     1.972000000    -0.814000000
H    -3.303000000     3.374000000    -0.984000000
O    -8.748000000    -0.983000000    -0.449000000
H    -8.468000000    -1.246000000     0.428000000
H    -7.991000000    -0.528000000    -0.816000000
O    -1.859000000     4.590000000    -0.431000000
H    -1.115000000     5.038000000    -0.029000000
H    -2.516000000     5.276000000    -0.550000000
O    -6.490000000     0.381000000    -1.522000000
H    -6.612000000     1.276000000    -1.839000000
H    -5.549000000     0.310000000    -1.362000000
O    -0.429000000     0.368000000    -5.968000000
H    -0.649000000    -0.563000000    -5.987000000
H    -0.157000000     0.568000000    -6.864000000
O     3.048000000    -4.249000000     1.154000000
H     2.446000000    -3.952000000     1.836000000
H     3.318000000    -5.123000000     1.437000000
O     1.869000000     0.113000000     5.219000000
H     1.258000000     0.785000000     4.918000000
H     2.735000000     0.479000000     5.037000000
O     2.111000000    -2.686000000    -3.319000000
H     2.103000000    -3.441000000    -2.730000000
H     1.449000000    -2.891000000    -3.979000000
O    -2.951000000     3.835000000    -4.712000000
H    -2.810000000     2.889000000    -4.670000000
H    -3.490000000     3.962000000    -5.493000000
O    -1.400000000    -2.224000000    -5.538000000
H    -2.136000000    -2.250000000    -4.926000000
H    -0.871000000    -2.988000000    -5.308000000
O     1.377000000    -3.653000000     3.126000000
H     0.663000000    -3.132000000     2.759000000
H     1.907000000    -3.022000000     3.614000000
O     3.627000000     3.890000000     4.000000000
H     4.199000000     3.123000000     3.983000000
H     3.309000000     3.930000000     4.902000000
O    -5.646000000    -3.769000000    -4.598000000
H    -5.286000000    -3.345000000    -3.819000000
H    -5.342000000    -3.228000000    -5.327000000
O    -0.683000000    -6.276000000    -3.792000000
H     0.035000000    -5.661000000    -3.941000000
H    -0.251000000    -7.117000000    -3.642000000
O    -3.052000000    -4.516000000     1.116000000
H    -3.370000000    -5.415000000     1.027000000
H    -2.099000000    -4.601000000     1.147000000
O     5.977000000     2.157000000     2.109000000
H     6.113000000     2.339000000     3.039000000
H     5.576000000     2.955000000     1.765000000
O    -3.397000000     3.821000000     1.827000000
H    -4.255000000     3.849000000     1.404000000
H    -2.774000000     3.964000000     1.115000000
O     6.186000000    -0.359000000     1.142000000
H     6.221000000     0.539000000     1.471000000
H     5.674000000    -0.299000000     0.335000000
O    -6.463000000     2.894000000    -2.596000000
H    -5.630000000     2.876000000    -2.126000000
H    -6.218000000     2.854000000    -3.521000000
O     5.155000000     4.437000000     0.632000000
H     5.761000000     5.157000000     0.459000000
H     4.290000000     4.846000000     0.632000000
O    -0.403000000     2.015000000     4.579000000
H    -0.256000000     2.903000000     4.252000000
H    -1.278000000     1.787000000     4.266000000
O     1.548000000     3.211000000     5.985000000
H     0.776000000     2.807000000     5.589000000
H     1.379000000     3.178000000     6.927000000
O     0.318000000    -4.248000000    -5.378000000
H     0.976000000    -4.215000000    -6.073000000
H    -0.381000000    -4.796000000    -5.736000000
O    -4.590000000    -2.500000000    -2.537000000
H    -5.155000000    -2.107000000    -1.871000000
H    -3.909000000    -1.846000000    -2.689000000
O     2.729000000    -1.368000000    -5.846000000
H     2.899000000    -1.528000000    -4.918000000
H     2.759000000    -0.415000000    -5.934000000
O     5.683000000    -2.473000000     4.858000000
H     4.738000000    -2.497000000     5.011000000
H     5.953000000    -1.606000000     5.159000000
O     3.079000000    -2.291000000     5.343000000
H     2.725000000    -2.756000000     6.101000000
H     2.644000000    -1.439000000     5.359000000
O    -4.681000000     0.635000000     1.342000000
H    -4.527000000     0.497000000     0.408000000
H    -5.084000000     1.502000000     1.393000000
O    -4.811000000    -4.933000000    -1.677000000
H    -4.289000000    -5.605000000    -2.116000000
H    -4.394000000    -4.107000000    -1.924000000
O    -3.008000000     1.076000000    -4.692000000
H    -3.008000000     0.446000000    -3.971000000
H    -2.155000000     0.961000000    -5.110000000
O     0.826000000     1.134000000    -3.780000000
H     0.426000000     0.443000000    -3.251000000
H     0.525000000     0.958000000    -4.671000000
O     2.215000000    -4.851000000    -1.490000000
H     1.584000000    -5.546000000    -1.303000000
H     2.627000000    -4.667000000    -0.645000000
O    -7.402000000    -1.896000000    -3.351000000
H    -7.619000000    -1.200000000    -2.731000000
H    -8.080000000    -1.837000000    -4.024000000
O     0.270000000     4.214000000     3.165000000
H     0.562000000     3.908000000     2.306000000
H     0.991000000     4.756000000     3.484000000
O    -0.416000000    -1.936000000     2.370000000
H    -1.315000000    -1.820000000     2.062000000
H     0.034000000    -1.133000000     2.106000000
O    -0.467000000    -2.576000000     5.584000000
H    -0.502000000    -2.280000000     4.675000000
H    -0.375000000    -1.772000000     6.095000000
O    -2.673000000     0.276000000     3.482000000
H    -3.124000000    -0.559000000     3.351000000
H    -2.990000000     0.833000000     2.770000000
O     6.162000000    -1.861000000    -3.568000000
H     6.099000000    -2.760000000    -3.890000000
H     5.624000000    -1.852000000    -2.776000000
O    -4.754000000     1.302000000     5.099000000
H    -4.494000000     0.663000000     5.762000000
H    -4.070000000     1.246000000     4.431000000
O     4.898000000    -1.728000000    -1.064000000
H     3.960000000    -1.734000000    -1.255000000
H     5.078000000    -2.602000000    -0.718000000
O    -3.297000000    -1.938000000     2.110000000
H    -3.614000000    -1.444000000     1.353000000
H    -3.438000000    -2.855000000     1.874000000
O     3.457000000     5.967000000     2.296000000
H     3.369000000     5.104000000     2.701000000
H     2.825000000     6.515000000     2.762000000
O    -5.674000000     2.350000000    -5.011000000
H    -5.725000000     2.797000000    -5.856000000
H    -4.737000000     2.221000000    -4.864000000
O     1.048000000     3.575000000     0.429000000
H     1.582000000     3.479000000    -0.359000000
H     0.238000000     3.106000000     0.227000000
