144
-2820.15982
O     1.198000000     3.192000000     1.928000000
H     1.407000000     2.495000000     2.550000000
H     0.251000000     3.128000000     1.807000000
O    -0.201000000     1.991000000    -4.445000000
H     0.560000000     2.074000000    -5.020000000
H    -0.147000000     2.750000000    -3.864000000
O     2.986000000    -4.038000000     2.066000000
H     2.181000000    -3.786000000     2.519000000
H     2.801000000    -3.874000000     1.141000000
O    -6.020000000     0.935000000    -0.696000000
H    -5.255000000     0.390000000    -0.513000000
H    -6.220000000     0.766000000    -1.617000000
O     7.210000000    -1.756000000     3.143000000
H     6.371000000    -1.541000000     3.552000000
H     7.551000000    -2.483000000     3.665000000
O    -7.403000000    -2.853000000     1.035000000
H    -7.990000000    -3.445000000     1.505000000
H    -7.832000000    -1.999000000     1.089000000
O    -5.292000000     0.051000000    -3.700000000
H    -5.564000000     0.959000000    -3.833000000
H    -4.387000000     0.115000000    -3.393000000
O    -3.894000000     0.080000000    -6.634000000
H    -4.534000000    -0.631000000    -6.677000000
H    -3.497000000    -0.008000000    -5.767000000
O     0.901000000    -3.167000000     3.493000000
H     0.921000000    -2.316000000     3.931000000
H     0.715000000    -3.793000000     4.193000000
O    -2.617000000    -3.055000000    -4.794000000
H    -2.544000000    -3.432000000    -3.917000000
H    -2.506000000    -2.114000000    -4.660000000
O     1.388000000    -0.445000000    -6.690000000
H     0.655000000    -0.183000000    -7.248000000
H     1.622000000     0.352000000    -6.213000000
O     2.684000000    -1.862000000    -2.907000000
H     1.734000000    -1.775000000    -2.978000000
H     3.025000000    -1.013000000    -3.187000000
O     4.615000000    -0.774000000     4.023000000
H     3.787000000    -0.422000000     3.695000000
H     4.545000000    -0.704000000     4.975000000
O     5.521000000    -3.197000000     0.333000000
H     5.554000000    -2.918000000     1.249000000
H     4.587000000    -3.278000000     0.141000000
O    -3.632000000     3.009000000    -2.849000000
H    -4.012000000     2.740000000    -3.685000000
H    -3.253000000     2.207000000    -2.489000000
O    -1.957000000    -3.430000000     5.081000000
H    -1.823000000    -3.580000000     4.146000000
H    -1.901000000    -2.479000000     5.182000000
O     5.786000000     3.218000000     1.642000000
H     6.143000000     2.646000000     0.963000000
H     5.037000000     3.645000000     1.226000000
O    -5.660000000     4.171000000    -0.418000000
H    -6.414000000     4.375000000    -0.972000000
H    -5.482000000     3.246000000    -0.588000000
O     3.245000000     4.863000000     1.921000000
H     2.499000000     4.280000000     1.778000000
H     2.908000000     5.543000000     2.505000000
O    -4.748000000    -2.451000000     1.326000000
H    -5.612000000    -2.813000000     1.127000000
H    -4.525000000    -1.926000000     0.558000000
O     0.309000000    -1.675000000    -4.344000000
H    -0.415000000    -1.083000000    -4.141000000
H     0.515000000    -1.495000000    -5.262000000
O     4.492000000    -5.421000000     3.908000000
H     4.034000000    -4.849000000     3.292000000
H     4.655000000    -4.867000000     4.672000000
O    -3.653000000     3.369000000     1.922000000
H    -4.498000000     3.725000000     1.646000000
H    -3.794000000     2.423000000     1.963000000
O     7.230000000     1.054000000     2.876000000
H     7.291000000     0.100000000     2.835000000
H     6.575000000     1.281000000     2.216000000
O    -4.264000000     0.778000000     2.136000000
H    -4.027000000     0.111000000     1.491000000
H    -4.662000000     0.286000000     2.854000000
O    -6.037000000    -2.447000000    -3.996000000
H    -5.727000000    -1.572000000    -3.761000000
H    -6.178000000    -2.405000000    -4.941000000
O    -1.930000000    -3.677000000    -2.293000000
H    -2.477000000    -4.229000000    -1.734000000
H    -1.991000000    -2.805000000    -1.903000000
O    -2.270000000     0.080000000    -4.367000000
H    -1.826000000     0.912000000    -4.529000000
H    -2.477000000     0.097000000    -3.432000000
O    -0.091000000     3.233000000    -0.535000000
H     0.728000000     3.564000000    -0.165000000
H    -0.056000000     2.288000000    -0.388000000
O    -3.092000000    -4.162000000     2.399000000
H    -3.694000000    -4.448000000     3.086000000
H    -3.630000000    -3.627000000     1.816000000
O    -7.840000000    -1.974000000    -1.847000000
H    -7.334000000    -2.204000000    -1.068000000
H    -7.339000000    -2.343000000    -2.575000000
O     1.613000000    -0.552000000     4.660000000
H     1.636000000     0.345000000     4.325000000
H     2.348000000    -0.598000000     5.271000000
O     2.214000000     2.082000000     4.219000000
H     3.138000000     2.272000000     4.057000000
H     1.862000000     2.896000000     4.579000000
O     4.731000000     4.055000000     4.193000000
H     4.042000000     4.586000000     3.795000000
H     5.126000000     3.586000000     3.457000000
O    -3.450000000     3.118000000     4.902000000
H    -2.779000000     2.979000000     5.569000000
H    -2.976000000     3.071000000     4.072000000
O     4.110000000     0.422000000    -2.959000000
H     4.566000000     1.090000000    -3.470000000
H     4.809000000    -0.134000000    -2.614000000
O    -0.914000000    -3.576000000     0.784000000
H    -1.803000000    -3.786000000     1.072000000
H    -0.648000000    -2.844000000     1.341000000
O     2.912000000    -3.640000000    -0.756000000
H     2.110000000    -4.147000000    -0.886000000
H     2.915000000    -3.009000000    -1.476000000
O    -0.943000000    -0.697000000     5.137000000
H    -1.168000000    -0.330000000     5.992000000
H     0.004000000    -0.577000000     5.066000000
O    -7.858000000    -0.259000000     1.446000000
H    -7.270000000     0.226000000     0.867000000
H    -7.541000000    -0.063000000     2.328000000
O     2.331000000     5.012000000    -0.881000000
H     1.665000000     5.620000000    -0.560000000
H     3.001000000     5.007000000    -0.198000000
O     4.012000000     2.806000000    -0.973000000
H     3.145000000     3.167000000    -1.159000000
H     3.909000000     1.862000000    -1.097000000
O    -5.660000000     2.619000000    -4.699000000
H    -6.456000000     3.151000000    -4.673000000
H    -5.071000000     3.097000000    -5.282000000
O    -1.352000000     4.431000000     2.650000000
H    -1.283000000     5.356000000     2.415000000
H    -2.175000000     4.145000000     2.253000000
O     4.296000000    -3.467000000    -4.347000000
H     4.344000000    -2.883000000    -5.104000000
H     3.617000000    -3.085000000    -3.792000000
O     6.308000000    -1.396000000    -1.747000000
H     6.508000000    -2.015000000    -2.448000000
H     5.924000000    -1.934000000    -1.054000000
O    -2.277000000     4.983000000    -1.829000000
H    -1.516000000     4.465000000    -1.566000000
H    -2.870000000     4.350000000    -2.232000000
O     6.050000000     0.766000000     0.013000000
H     6.083000000    -0.118000000    -0.354000000
H     5.639000000     1.294000000    -0.671000000
