144
-2799.66175
O    -2.419000000     0.593000000    -3.183000000
H    -2.971000000     0.230000000    -2.490000000
H    -2.693000000     0.129000000    -3.974000000
O     1.115000000     6.180000000    -0.714000000
H     2.039000000     6.186000000    -0.962000000
H     0.666000000     6.591000000    -1.453000000
O    -0.649000000    -3.449000000     1.497000000
H    -0.228000000    -2.590000000     1.494000000
H    -0.284000000    -3.892000000     2.263000000
O     0.992000000    -2.469000000    -3.525000000
H     0.794000000    -2.967000000    -4.318000000
H     0.725000000    -1.573000000    -3.731000000
O     5.042000000     0.883000000     2.696000000
H     5.844000000     0.585000000     3.127000000
H     4.935000000     0.289000000     1.953000000
O    -6.186000000    -1.492000000    -1.359000000
H    -5.519000000    -1.001000000    -0.879000000
H    -5.892000000    -2.402000000    -1.312000000
O    -5.766000000     5.204000000    -1.559000000
H    -5.367000000     4.351000000    -1.387000000
H    -6.168000000     5.111000000    -2.423000000
O    -0.693000000    -4.493000000    -2.372000000
H    -1.562000000    -4.440000000    -1.976000000
H    -0.422000000    -3.582000000    -2.481000000
O    -5.222000000     5.658000000     2.081000000
H    -4.586000000     5.049000000     1.706000000
H    -5.383000000     6.294000000     1.385000000
O    -8.829000000    -1.955000000     0.142000000
H    -8.366000000    -2.268000000     0.919000000
H    -8.134000000    -1.700000000    -0.464000000
O    -0.767000000     4.310000000    -0.286000000
H    -1.149000000     4.214000000    -1.158000000
H    -0.406000000     5.196000000    -0.279000000
O     4.834000000    -1.965000000     3.737000000
H     5.320000000    -2.559000000     3.165000000
H     4.018000000    -2.427000000     3.924000000
O    -5.975000000     2.228000000    -4.247000000
H    -5.783000000     3.160000000    -4.348000000
H    -6.879000000     2.202000000    -3.933000000
O    -3.462000000    -3.874000000    -4.675000000
H    -3.573000000    -3.752000000    -3.732000000
H    -2.742000000    -4.501000000    -4.752000000
O     0.121000000     0.176000000    -3.129000000
H    -0.832000000     0.260000000    -3.097000000
H     0.379000000     0.024000000    -2.220000000
O     3.716000000    -3.091000000    -3.417000000
H     3.693000000    -2.171000000    -3.682000000
H     2.817000000    -3.286000000    -3.152000000
O    -7.348000000    -1.428000000     2.476000000
H    -6.605000000    -1.045000000     2.943000000
H    -7.885000000    -1.822000000     3.163000000
O    -4.967000000     2.632000000    -1.419000000
H    -5.101000000     2.026000000    -2.147000000
H    -4.671000000     2.077000000    -0.697000000
O     2.770000000     1.204000000     4.425000000
H     3.446000000     1.108000000     3.754000000
H     2.423000000     2.086000000     4.291000000
O     5.329000000    -0.525000000    -3.169000000
H     5.345000000    -1.427000000    -2.849000000
H     5.577000000     0.003000000    -2.411000000
O    -7.192000000    -2.757000000    -3.929000000
H    -6.544000000    -2.645000000    -3.233000000
H    -7.953000000    -3.135000000    -3.489000000
O     5.966000000    -0.574000000     0.459000000
H     6.691000000     0.049000000     0.524000000
H     6.390000000    -1.432000000     0.430000000
O     0.108000000    -0.572000000     4.080000000
H    -0.318000000    -1.374000000     4.383000000
H     1.038000000    -0.713000000     4.258000000
O    -3.052000000     3.845000000     1.152000000
H    -2.143000000     3.618000000     0.958000000
H    -3.569000000     3.234000000     0.626000000
O    -6.796000000     0.831000000     0.855000000
H    -5.842000000     0.789000000     0.779000000
H    -7.001000000     0.274000000     1.606000000
O     0.389000000    -6.627000000    -3.931000000
H     0.364000000    -6.031000000    -3.183000000
H     1.287000000    -6.957000000    -3.945000000
O     4.465000000     3.334000000     1.535000000
H     3.690000000     3.570000000     2.045000000
H     4.614000000     2.411000000     1.740000000
O     3.283000000     1.155000000    -4.390000000
H     3.652000000     0.273000000    -4.346000000
H     3.827000000     1.672000000    -3.796000000
O    -3.244000000    -3.502000000    -1.768000000
H    -4.052000000    -3.965000000    -1.546000000
H    -3.451000000    -2.578000000    -1.629000000
O     2.631000000    -3.275000000     3.156000000
H     2.197000000    -4.096000000     3.387000000
H     3.043000000    -3.452000000     2.310000000
O    -4.855000000    -0.290000000     2.836000000
H    -4.486000000     0.265000000     2.149000000
H    -4.437000000    -1.141000000     2.707000000
O    -2.996000000     4.636000000     3.961000000
H    -2.042000000     4.575000000     3.896000000
H    -3.316000000     4.243000000     3.149000000
O    -8.110000000     2.626000000    -0.823000000
H    -7.540000000     3.349000000    -0.560000000
H    -7.909000000     1.926000000    -0.202000000
O     0.912000000     2.222000000    -4.845000000
H     1.858000000     2.125000000    -4.949000000
H     0.653000000     1.477000000    -4.303000000
O    -3.192000000    -1.155000000    -5.357000000
H    -2.890000000    -1.545000000    -6.176000000
H    -3.906000000    -1.724000000    -5.069000000
O     3.827000000    -4.461000000     0.970000000
H     4.603000000    -4.299000000     0.433000000
H     3.102000000    -4.471000000     0.345000000
O    -1.850000000     1.335000000     3.236000000
H    -2.187000000     0.808000000     2.512000000
H    -1.076000000     0.860000000     3.538000000
O    -2.496000000    -5.422000000     0.985000000
H    -1.889000000    -4.718000000     0.758000000
H    -2.451000000    -5.479000000     1.940000000
O     1.669000000    -5.151000000    -0.500000000
H     1.505000000    -5.935000000     0.024000000
H     0.834000000    -4.971000000    -0.931000000
O    -3.227000000    -2.344000000     2.633000000
H    -2.436000000    -2.587000000     2.152000000
H    -3.801000000    -3.106000000     2.551000000
O     6.171000000    -3.780000000    -0.426000000
H     6.547000000    -4.166000000    -1.217000000
H     6.921000000    -3.641000000     0.153000000
O    -0.420000000     3.778000000     3.734000000
H    -0.743000000     2.902000000     3.525000000
H     0.251000000     3.634000000     4.401000000
O    -4.278000000     1.946000000     4.700000000
H    -4.527000000     2.124000000     3.793000000
H    -3.326000000     2.047000000     4.711000000
O     6.831000000     4.698000000     1.771000000
H     6.528000000     5.563000000     2.051000000
H     6.034000000     4.170000000     1.724000000
O    -1.985000000     6.541000000     1.421000000
H    -2.529000000     5.753000000     1.440000000
H    -1.893000000     6.745000000     0.490000000
O     4.512000000     5.110000000    -0.753000000
H     4.305000000     4.471000000    -1.435000000
H     4.662000000     4.583000000     0.032000000
O     2.505000000     4.002000000     4.076000000
H     2.676000000     4.530000000     4.855000000
H     2.031000000     4.589000000     3.487000000
O     1.105000000     5.967000000     2.053000000
H     1.231000000     5.778000000     1.124000000
H     0.305000000     5.498000000     2.287000000
