144
-2786.23741
O     2.850000000     4.088000000     2.190000000
H     1.933000000     3.844000000     2.316000000
H     3.071000000     3.749000000     1.322000000
O    -1.543000000    -3.064000000     2.113000000
H    -0.923000000    -3.457000000     1.499000000
H    -1.012000000    -2.830000000     2.874000000
O    -1.555000000    -2.405000000    -5.316000000
H    -0.643000000    -2.618000000    -5.115000000
H    -1.803000000    -1.765000000    -4.649000000
O     2.927000000    -3.859000000     1.609000000
H     3.258000000    -4.753000000     1.696000000
H     2.900000000    -3.703000000     0.665000000
O    -4.982000000    -3.279000000     0.589000000
H    -4.462000000    -2.612000000     0.141000000
H    -5.213000000    -3.904000000    -0.098000000
O    -0.817000000     5.175000000    -0.599000000
H    -1.098000000     6.053000000    -0.856000000
H    -0.022000000     5.019000000    -1.109000000
O    -1.075000000     2.458000000    -2.686000000
H    -0.905000000     1.725000000    -2.095000000
H    -0.587000000     2.244000000    -3.481000000
O     1.023000000    -2.410000000     3.414000000
H     1.715000000    -2.762000000     2.854000000
H     1.238000000    -2.730000000     4.290000000
O    -6.253000000    -0.548000000    -0.841000000
H    -5.325000000    -0.358000000    -0.702000000
H    -6.257000000    -1.348000000    -1.367000000
O     3.213000000     2.184000000     6.269000000
H     2.608000000     1.806000000     5.631000000
H     4.059000000     1.787000000     6.061000000
O     5.131000000    -3.065000000    -0.297000000
H     5.723000000    -3.471000000     0.337000000
H     5.635000000    -2.340000000    -0.666000000
O    -5.018000000    -4.459000000    -1.914000000
H    -4.104000000    -4.570000000    -1.653000000
H    -5.009000000    -3.703000000    -2.501000000
O     1.555000000    -2.391000000    -4.702000000
H     2.079000000    -1.922000000    -5.351000000
H     2.196000000    -2.744000000    -4.085000000
O     4.135000000     2.225000000    -2.442000000
H     4.957000000     2.154000000    -1.957000000
H     4.391000000     2.145000000    -3.361000000
O     3.515000000    -3.333000000    -2.603000000
H     3.983000000    -3.548000000    -1.796000000
H     4.191000000    -3.338000000    -3.280000000
O     3.494000000     4.248000000    -0.629000000
H     3.493000000     3.352000000    -0.964000000
H     2.945000000     4.735000000    -1.244000000
O     6.241000000     1.779000000    -0.753000000
H     6.933000000     1.516000000    -1.360000000
H     6.698000000     1.965000000     0.067000000
O    -7.048000000    -1.194000000     1.556000000
H    -6.700000000    -1.318000000     0.672000000
H    -6.549000000    -0.457000000     1.908000000
O     2.129000000     0.878000000     3.627000000
H     1.979000000     0.249000000     4.334000000
H     1.387000000     0.753000000     3.035000000
O    -7.500000000    -4.388000000    -0.942000000
H    -7.987000000    -4.383000000    -1.766000000
H    -6.606000000    -4.620000000    -1.193000000
O    -1.739000000    -7.216000000    -2.036000000
H    -1.579000000    -6.273000000    -1.994000000
H    -2.646000000    -7.292000000    -2.334000000
O    -5.409000000     4.635000000    -0.509000000
H    -4.867000000     3.851000000    -0.599000000
H    -4.826000000     5.286000000    -0.117000000
O     4.744000000    -1.747000000     6.057000000
H     4.356000000    -2.546000000     6.415000000
H     4.666000000    -1.848000000     5.108000000
O     4.971000000     0.835000000     4.759000000
H     4.784000000     0.480000000     3.890000000
H     5.160000000     1.761000000     4.604000000
O    -4.428000000     0.472000000     2.743000000
H    -4.344000000     0.555000000     1.793000000
H    -4.359000000    -0.468000000     2.908000000
O    -7.711000000     3.302000000     0.344000000
H    -7.846000000     2.651000000    -0.345000000
H    -7.298000000     4.041000000    -0.103000000
O    -7.071000000    -1.915000000    -4.192000000
H    -6.169000000    -2.171000000    -4.000000000
H    -6.999000000    -1.026000000    -4.540000000
O     0.157000000    -4.610000000     0.255000000
H     0.584000000    -4.308000000    -0.546000000
H     0.580000000    -5.446000000     0.451000000
O     5.979000000    -0.407000000     2.308000000
H     6.478000000    -0.379000000     3.124000000
H     6.641000000    -0.520000000     1.626000000
O    -6.217000000     1.805000000     4.567000000
H    -6.546000000     2.446000000     3.936000000
H    -5.612000000     1.261000000     4.062000000
O    -3.399000000     2.997000000    -0.899000000
H    -2.862000000     3.112000000    -1.684000000
H    -3.484000000     2.049000000    -0.804000000
O    -4.516000000    -1.991000000    -2.971000000
H    -4.119000000    -1.896000000    -2.105000000
H    -4.198000000    -1.235000000    -3.464000000
O     6.148000000     5.289000000    -0.654000000
H     5.433000000     4.660000000    -0.554000000
H     5.721000000     6.145000000    -0.610000000
O    -8.150000000     1.372000000    -1.637000000
H    -7.361000000     0.832000000    -1.592000000
H    -8.057000000     1.865000000    -2.453000000
O    -4.328000000     0.345000000    -4.601000000
H    -4.588000000     0.062000000    -5.478000000
H    -4.565000000     1.272000000    -4.569000000
O     0.644000000     3.453000000     3.597000000
H     0.689000000     3.313000000     4.543000000
H    -0.128000000     2.961000000     3.318000000
O     5.261000000     3.550000000     3.212000000
H     5.652000000     4.373000000     2.919000000
H     4.354000000     3.595000000     2.908000000
O    -0.801000000    -0.248000000     3.838000000
H    -0.490000000    -0.671000000     3.037000000
H    -0.463000000    -0.798000000     4.545000000
O    -2.691000000    -4.746000000    -0.344000000
H    -1.775000000    -4.652000000    -0.085000000
H    -3.187000000    -4.472000000     0.428000000
O     0.697000000    -4.925000000    -2.659000000
H     0.544000000    -3.998000000    -2.844000000
H     0.649000000    -5.351000000    -3.514000000
O    -4.155000000    -2.406000000     2.868000000
H    -4.670000000    -2.669000000     2.105000000
H    -3.255000000    -2.639000000     2.642000000
O     4.129000000    -2.039000000     3.337000000
H     4.571000000    -1.389000000     2.791000000
H     3.638000000    -2.579000000     2.717000000
O    -2.338000000     2.070000000     3.897000000
H    -2.921000000     1.740000000     3.214000000
H    -1.670000000     1.391000000     3.991000000
O     2.515000000     6.697000000     2.440000000
H     2.077000000     7.138000000     1.713000000
H     2.565000000     5.780000000     2.169000000
O    -2.385000000     4.651000000     4.449000000
H    -2.135000000     3.733000000     4.340000000
H    -2.245000000     5.041000000     3.586000000
O     2.155000000     4.220000000    -2.986000000
H     1.474000000     3.948000000    -3.602000000
H     2.777000000     3.493000000    -2.982000000
O     0.316000000     6.214000000     4.547000000
H     0.126000000     5.342000000     4.201000000
H     1.218000000     6.387000000     4.278000000
O    -2.401000000     4.757000000     1.552000000
H    -3.172000000     4.230000000     1.342000000
H    -1.766000000     4.535000000     0.871000000
