144
-2795.86411
O    -4.304000000     3.743000000    -2.332000000
H    -3.768000000     3.893000000    -3.111000000
H    -3.701000000     3.356000000    -1.697000000
O     4.231000000    -2.581000000     7.608000000
H     4.211000000    -2.390000000     6.670000000
H     5.136000000    -2.840000000     7.781000000
O    -5.008000000    -3.322000000    -5.078000000
H    -5.283000000    -2.480000000    -4.714000000
H    -4.934000000    -3.899000000    -4.319000000
O     4.736000000     1.496000000    -4.411000000
H     3.916000000     1.129000000    -4.741000000
H     4.472000000     2.283000000    -3.935000000
O     3.741000000    -1.628000000     4.959000000
H     2.990000000    -1.313000000     4.456000000
H     4.337000000    -1.986000000     4.301000000
O     0.184000000    -2.478000000    -7.529000000
H     0.562000000    -3.344000000    -7.374000000
H    -0.306000000    -2.284000000    -6.730000000
O     1.224000000     2.210000000     4.731000000
H     1.743000000     1.480000000     4.394000000
H     1.144000000     2.035000000     5.669000000
O    -5.906000000    -0.143000000    -0.530000000
H    -5.638000000     0.451000000     0.172000000
H    -6.213000000     0.436000000    -1.228000000
O    -2.737000000    -2.438000000    -6.199000000
H    -2.445000000    -3.328000000    -6.396000000
H    -3.518000000    -2.556000000    -5.658000000
O    -2.054000000     4.343000000    -4.197000000
H    -2.313000000     3.723000000    -4.878000000
H    -1.365000000     3.890000000    -3.710000000
O     0.319000000     3.578000000    -3.327000000
H     1.275000000     3.600000000    -3.277000000
H     0.125000000     2.814000000    -3.869000000
O    -0.254000000     1.584000000    -5.301000000
H    -0.984000000     1.121000000    -5.712000000
H    -0.261000000     2.450000000    -5.708000000
O     4.553000000     1.492000000     4.369000000
H     3.877000000     1.559000000     5.043000000
H     4.129000000     1.024000000     3.650000000
O    -2.110000000     0.067000000    -6.722000000
H    -2.335000000     0.094000000    -7.652000000
H    -2.409000000    -0.793000000    -6.428000000
O    -2.866000000     2.532000000    -5.949000000
H    -2.581000000     1.672000000    -6.257000000
H    -3.230000000     2.956000000    -6.726000000
O     2.105000000     4.703000000     3.880000000
H     1.706000000     3.881000000     4.163000000
H     3.045000000     4.524000000     3.872000000
O     4.602000000     1.848000000     0.423000000
H     3.980000000     2.515000000     0.132000000
H     4.169000000     1.423000000     1.163000000
O    -1.558000000    -5.189000000     5.063000000
H    -1.592000000    -4.253000000     4.863000000
H    -2.436000000    -5.398000000     5.382000000
O    -1.484000000    -0.718000000     7.075000000
H    -1.051000000    -0.288000000     7.813000000
H    -0.808000000    -0.774000000     6.400000000
O     1.115000000    -3.053000000     3.432000000
H     1.109000000    -3.641000000     4.187000000
H     1.974000000    -3.187000000     3.031000000
O    -4.078000000    -4.574000000     2.269000000
H    -3.232000000    -4.504000000     2.711000000
H    -4.303000000    -5.502000000     2.327000000
O    -0.978000000    -4.259000000     1.510000000
H    -0.077000000    -4.233000000     1.188000000
H    -0.902000000    -4.083000000     2.448000000
O     6.755000000     1.536000000    -2.379000000
H     6.185000000     1.465000000    -1.613000000
H     6.283000000     1.076000000    -3.072000000
O    -5.719000000    -2.579000000    -1.822000000
H    -5.625000000    -1.855000000    -1.203000000
H    -6.453000000    -2.323000000    -2.381000000
O     2.904000000     3.760000000    -3.168000000
H     3.137000000     4.028000000    -2.279000000
H     3.149000000     4.506000000    -3.716000000
O     6.594000000     3.545000000     1.637000000
H     6.831000000     4.200000000     0.981000000
H     6.201000000     2.832000000     1.133000000
O    -4.524000000    -5.045000000    -2.936000000
H    -4.526000000    -5.652000000    -2.196000000
H    -4.949000000    -4.256000000    -2.599000000
O     0.102000000    -1.313000000     5.120000000
H     0.743000000    -0.659000000     4.843000000
H     0.296000000    -2.081000000     4.583000000
O    -3.251000000     0.780000000     3.327000000
H    -3.966000000     1.275000000     2.925000000
H    -3.174000000    -0.008000000     2.789000000
O     4.640000000    -2.303000000     2.065000000
H     4.738000000    -2.618000000     1.167000000
H     4.293000000    -1.416000000     1.971000000
O     1.378000000    -2.900000000    -0.886000000
H     0.808000000    -2.170000000    -0.642000000
H     1.949000000    -2.541000000    -1.565000000
O    -1.788000000     3.902000000     3.672000000
H    -1.329000000     3.067000000     3.581000000
H    -1.330000000     4.351000000     4.383000000
O     0.008000000     4.837000000    -0.595000000
H     0.317000000     5.657000000    -0.210000000
H     0.694000000     4.591000000    -1.216000000
O     2.245000000     0.496000000    -4.664000000
H     1.518000000     1.118000000    -4.623000000
H     2.237000000     0.177000000    -5.566000000
O    -4.645000000    -1.970000000     3.064000000
H    -5.329000000    -1.487000000     2.601000000
H    -4.634000000    -2.831000000     2.646000000
O    -3.754000000     4.171000000     1.715000000
H    -3.224000000     3.997000000     2.493000000
H    -3.311000000     3.695000000     1.013000000
O    -2.187000000    -2.811000000     4.265000000
H    -3.100000000    -2.564000000     4.114000000
H    -1.755000000    -1.993000000     4.511000000
O     3.398000000     0.852000000     7.084000000
H     4.006000000     0.247000000     6.659000000
H     2.909000000     0.306000000     7.700000000
O     4.133000000    -0.298000000    -1.183000000
H     4.404000000    -1.124000000    -0.782000000
H     4.343000000     0.366000000    -0.526000000
O    -2.205000000     2.889000000    -0.196000000
H    -1.735000000     2.108000000     0.097000000
H    -1.519000000     3.471000000    -0.524000000
O     2.691000000    -3.272000000    -4.778000000
H     2.001000000    -3.931000000    -4.856000000
H     2.425000000    -2.732000000    -4.035000000
O     2.582000000    -1.590000000    -2.791000000
H     3.153000000    -1.071000000    -2.225000000
H     2.243000000    -0.963000000    -3.430000000
O     7.002000000    -2.870000000     3.413000000
H     7.571000000    -3.123000000     2.686000000
H     6.216000000    -2.522000000     2.992000000
O    -6.483000000     1.450000000    -2.432000000
H    -6.155000000     2.203000000    -2.923000000
H    -7.081000000     1.828000000    -1.786000000
O     7.103000000     0.853000000     4.968000000
H     7.493000000     1.382000000     4.272000000
H     6.177000000     0.794000000     4.734000000
O     1.044000000    -4.669000000    -3.295000000
H     0.461000000    -3.920000000    -3.175000000
H     0.657000000    -5.362000000    -2.761000000
O     4.773000000     4.318000000     3.677000000
H     5.433000000     4.289000000     2.985000000
H     4.789000000     3.442000000     4.061000000
O     3.386000000     4.386000000    -0.552000000
H     3.103000000     4.708000000     0.303000000
H     4.252000000     4.774000000    -0.680000000
