144
-2772.02307
O     2.226000000     6.101000000    -2.877000000
H     2.796000000     5.333000000    -2.856000000
H     1.396000000     5.794000000    -2.514000000
O    -4.703000000    -5.027000000     2.112000000
H    -5.351000000    -5.730000000     2.061000000
H    -5.223000000    -4.229000000     2.207000000
O    -2.440000000    -0.867000000     3.529000000
H    -3.315000000    -0.896000000     3.142000000
H    -2.387000000    -1.662000000     4.060000000
O    -0.415000000     5.283000000     4.300000000
H     0.220000000     5.957000000     4.060000000
H    -0.973000000     5.702000000     4.956000000
O    -1.634000000     6.423000000     0.597000000
H    -2.207000000     6.978000000     1.126000000
H    -1.259000000     5.802000000     1.222000000
O     3.337000000     0.943000000     5.077000000
H     3.837000000     1.751000000     4.958000000
H     2.795000000     0.879000000     4.290000000
O     0.488000000    -1.057000000    -4.658000000
H     0.382000000    -0.106000000    -4.613000000
H    -0.406000000    -1.396000000    -4.703000000
O     0.860000000     7.826000000     0.723000000
H     0.517000000     6.936000000     0.803000000
H     0.083000000     8.373000000     0.611000000
O    -2.732000000    -1.692000000    -5.165000000
H    -3.174000000    -2.076000000    -4.407000000
H    -3.119000000    -2.137000000    -5.919000000
O     0.763000000     1.628000000    -3.997000000
H     1.660000000     1.620000000    -4.330000000
H     0.765000000     2.303000000    -3.319000000
O     4.179000000    -0.785000000     2.547000000
H     5.093000000    -0.578000000     2.353000000
H     3.739000000     0.065000000     2.561000000
O    -6.957000000     0.850000000    -3.927000000
H    -6.521000000     0.329000000    -4.601000000
H    -6.384000000     0.782000000    -3.163000000
O     1.400000000     3.152000000    -1.871000000
H     2.112000000     3.679000000    -1.508000000
H     1.684000000     2.247000000    -1.747000000
O     1.988000000    -1.434000000     6.479000000
H     1.469000000    -1.143000000     5.729000000
H     2.479000000    -0.657000000     6.747000000
O     3.568000000     4.274000000    -0.651000000
H     3.163000000     3.669000000    -0.029000000
H     3.410000000     5.141000000    -0.279000000
O     2.510000000    -2.698000000    -3.016000000
H     1.709000000    -2.445000000    -3.474000000
H     3.050000000    -1.908000000    -3.023000000
O     6.134000000    -2.774000000     0.677000000
H     6.340000000    -1.956000000     0.225000000
H     6.767000000    -2.817000000     1.395000000
O     0.901000000     5.154000000     1.380000000
H     1.353000000     5.461000000     2.166000000
H     1.250000000     4.275000000     1.231000000
O    -7.350000000    -3.640000000    -0.777000000
H    -6.557000000    -3.262000000    -0.396000000
H    -7.486000000    -4.452000000    -0.290000000
O    -2.256000000    -5.004000000     0.674000000
H    -1.614000000    -4.657000000     1.293000000
H    -3.083000000    -4.994000000     1.156000000
O     3.561000000     6.214000000     3.313000000
H     3.086000000     6.920000000     3.752000000
H     3.967000000     6.634000000     2.555000000
O     2.948000000     3.497000000     4.062000000
H     3.157000000     4.359000000     3.703000000
H     2.823000000     2.941000000     3.293000000
O     6.941000000     0.518000000     2.554000000
H     7.689000000     0.057000000     2.174000000
H     7.026000000     0.374000000     3.497000000
O    -0.385000000    -5.783000000    -1.458000000
H     0.512000000    -5.783000000    -1.125000000
H    -0.925000000    -5.586000000    -0.692000000
O     4.020000000    -0.036000000    -2.486000000
H     4.447000000     0.468000000    -1.793000000
H     3.761000000     0.620000000    -3.134000000
O     0.502000000    -1.101000000     3.906000000
H     0.920000000    -0.794000000     3.102000000
H    -0.386000000    -0.747000000     3.864000000
O     6.087000000     5.694000000     1.254000000
H     5.509000000     6.099000000     0.608000000
H     5.962000000     4.753000000     1.132000000
O     5.379000000     2.536000000     1.671000000
H     5.934000000     1.825000000     1.991000000
H     4.533000000     2.389000000     2.094000000
O    -3.900000000     1.967000000     0.146000000
H    -4.183000000     1.737000000     1.031000000
H    -2.952000000     2.073000000     0.218000000
O     3.423000000    -3.351000000     1.459000000
H     4.339000000    -3.422000000     1.191000000
H     3.267000000    -2.409000000     1.527000000
O     3.273000000    -4.759000000    -1.419000000
H     2.990000000    -4.400000000    -0.578000000
H     3.021000000    -4.095000000    -2.061000000
O    -2.017000000     2.410000000    -4.579000000
H    -1.877000000     2.399000000    -5.526000000
H    -1.198000000     2.078000000    -4.212000000
O     4.623000000    -2.381000000     4.824000000
H     3.913000000    -1.939000000     5.291000000
H     4.701000000    -1.903000000     3.999000000
O     4.962000000     0.394000000     7.161000000
H     4.652000000     0.570000000     6.273000000
H     5.862000000     0.721000000     7.170000000
O     4.327000000     3.907000000    -3.204000000
H     5.026000000     4.464000000    -3.546000000
H     4.288000000     4.118000000    -2.271000000
O     3.749000000     6.912000000     0.307000000
H     4.310000000     7.570000000     0.718000000
H     2.981000000     7.402000000     0.013000000
O     1.111000000    -5.757000000     0.865000000
H     0.366000000    -5.321000000     1.280000000
H     1.837000000    -5.622000000     1.474000000
O    -3.087000000     0.633000000    -7.052000000
H    -2.893000000     0.168000000    -6.239000000
H    -2.231000000     0.781000000    -7.454000000
O    -0.304000000     5.423000000    -1.975000000
H     0.235000000     4.632000000    -1.962000000
H    -0.472000000     5.613000000    -1.052000000
O    -0.111000000     2.638000000     4.645000000
H    -0.177000000     3.554000000     4.376000000
H     0.788000000     2.389000000     4.429000000
O    -5.526000000    -0.187000000    -1.072000000
H    -4.836000000     0.457000000    -0.911000000
H    -5.557000000    -0.710000000    -0.271000000
O     6.185000000     1.524000000    -0.914000000
H     7.049000000     1.117000000    -0.849000000
H     6.168000000     2.164000000    -0.202000000
O     2.730000000    -5.215000000     3.278000000
H     3.084000000    -5.133000000     4.164000000
H     3.093000000    -4.465000000     2.806000000
O    -3.950000000     4.188000000    -3.356000000
H    -4.695000000     4.136000000    -3.955000000
H    -3.263000000     3.677000000    -3.784000000
O    -4.032000000    -5.994000000    -2.154000000
H    -3.153000000    -5.639000000    -2.020000000
H    -4.121000000    -6.672000000    -1.485000000
O    -6.484000000     3.648000000    -0.101000000
H    -6.352000000     4.419000000    -0.653000000
H    -5.632000000     3.213000000    -0.088000000
O    -5.519000000    -2.115000000     2.030000000
H    -5.593000000    -2.297000000     2.967000000
H    -4.855000000    -1.427000000     1.972000000
O    -0.769000000    -4.685000000     2.850000000
H    -0.991000000    -5.513000000     3.276000000
H    -0.134000000    -4.276000000     3.439000000
