144
-2825.38963
O    -4.005000000    -1.549000000     3.627000000
H    -4.492000000    -1.888000000     4.378000000
H    -4.457000000    -0.738000000     3.395000000
O    -3.882000000     0.778000000    -4.008000000
H    -4.094000000     0.369000000    -3.169000000
H    -4.366000000     1.604000000    -4.000000000
O     2.873000000     3.549000000     1.645000000
H     3.155000000     2.665000000     1.880000000
H     2.982000000     4.057000000     2.449000000
O     2.497000000     5.153000000    -0.653000000
H     2.446000000     4.336000000    -0.157000000
H     3.016000000     4.932000000    -1.426000000
O    -3.467000000    -2.588000000     0.912000000
H    -2.830000000    -3.297000000     1.000000000
H    -3.382000000    -2.087000000     1.722000000
O    -3.647000000     2.469000000     1.543000000
H    -3.398000000     3.333000000     1.871000000
H    -3.015000000     2.286000000     0.847000000
O     3.201000000     0.139000000     5.620000000
H     2.903000000     0.132000000     4.710000000
H     3.906000000    -0.509000000     5.646000000
O    -0.827000000    -4.070000000    -3.088000000
H    -0.748000000    -3.481000000    -2.338000000
H     0.052000000    -4.096000000    -3.465000000
O    -4.709000000     0.891000000    -1.229000000
H    -3.883000000     1.368000000    -1.309000000
H    -5.300000000     1.507000000    -0.797000000
O     2.232000000     0.175000000    -4.784000000
H     3.136000000    -0.050000000    -4.566000000
H     1.968000000     0.794000000    -4.103000000
O    -3.156000000    -4.829000000    -4.389000000
H    -2.377000000    -4.726000000    -3.842000000
H    -3.019000000    -4.222000000    -5.116000000
O     0.794000000     2.895000000    -0.623000000
H     1.497000000     2.847000000    -1.271000000
H     0.819000000     2.047000000    -0.179000000
O    -1.109000000     0.672000000     6.106000000
H    -0.652000000     0.506000000     5.281000000
H    -1.316000000    -0.200000000     6.445000000
O     5.313000000    -1.278000000     4.879000000
H     5.943000000    -1.726000000     4.315000000
H     5.259000000    -0.392000000     4.521000000
O    -4.770000000    -1.785000000    -1.235000000
H    -4.588000000    -0.849000000    -1.319000000
H    -4.332000000    -2.042000000    -0.424000000
O     4.561000000     1.130000000     1.841000000
H     3.715000000     0.999000000     2.270000000
H     5.180000000     1.245000000     2.562000000
O     4.143000000     2.516000000     6.684000000
H     3.656000000     1.817000000     6.247000000
H     3.478000000     3.005000000     7.168000000
O     0.286000000    -2.217000000     4.487000000
H     0.289000000    -1.303000000     4.202000000
H    -0.577000000    -2.342000000     4.882000000
O     2.500000000     4.665000000     4.396000000
H     2.453000000     5.598000000     4.603000000
H     3.324000000     4.374000000     4.786000000
O    -3.182000000     2.201000000     5.822000000
H    -3.391000000     2.273000000     4.891000000
H    -2.479000000     1.553000000     5.860000000
O     2.676000000    -3.656000000    -1.497000000
H     1.877000000    -3.641000000    -0.971000000
H     2.367000000    -3.743000000    -2.399000000
O     4.746000000    -3.348000000     1.976000000
H     5.395000000    -2.953000000     2.559000000
H     3.913000000    -2.967000000     2.254000000
O    -1.925000000     5.245000000     5.016000000
H    -1.278000000     4.552000000     4.885000000
H    -2.610000000     5.058000000     4.375000000
O    -1.307000000    -4.111000000     1.953000000
H    -1.507000000    -3.793000000     2.834000000
H    -1.412000000    -5.061000000     2.012000000
O     0.050000000     3.002000000     4.723000000
H     0.817000000     3.375000000     4.288000000
H     0.033000000     2.089000000     4.438000000
O     0.390000000    -3.480000000    -0.128000000
H     0.726000000    -2.622000000     0.130000000
H    -0.308000000    -3.663000000     0.501000000
O     5.307000000    -3.095000000    -0.709000000
H     5.321000000    -3.109000000     0.248000000
H     4.400000000    -3.297000000    -0.938000000
O     2.025000000    -3.400000000     2.357000000
H     1.496000000    -4.029000000     1.869000000
H     1.491000000    -3.178000000     3.120000000
O     1.971000000    -4.588000000    -3.944000000
H     2.598000000    -5.309000000    -3.902000000
H     1.532000000    -4.701000000    -4.787000000
O    -2.017000000    -5.645000000    -0.994000000
H    -1.489000000    -5.510000000    -1.781000000
H    -1.469000000    -6.191000000    -0.429000000
O    -5.793000000     1.199000000     2.667000000
H    -5.104000000     1.498000000     2.073000000
H    -6.111000000     1.998000000     3.086000000
O    -5.330000000    -3.977000000    -3.041000000
H    -4.654000000    -4.458000000    -3.519000000
H    -4.905000000    -3.157000000    -2.788000000
O    -2.445000000    -2.739000000    -6.480000000
H    -1.594000000    -2.632000000    -6.055000000
H    -2.794000000    -1.850000000    -6.545000000
O    -2.444000000     2.569000000    -1.535000000
H    -1.588000000     2.153000000    -1.436000000
H    -2.295000000     3.281000000    -2.157000000
O     3.061000000    -3.600000000     5.371000000
H     3.294000000    -2.888000000     4.775000000
H     2.321000000    -4.035000000     4.947000000
O     2.734000000     2.561000000    -2.440000000
H     3.417000000     3.188000000    -2.677000000
H     3.183000000     1.910000000    -1.900000000
O    -1.560000000    -1.995000000     6.891000000
H    -2.481000000    -2.230000000     6.774000000
H    -1.352000000    -2.274000000     7.782000000
O     4.615000000     1.037000000    -0.815000000
H     5.323000000     0.456000000    -1.096000000
H     4.732000000     1.115000000     0.132000000
O     2.537000000    -2.802000000    -5.852000000
H     2.539000000    -2.875000000    -4.897000000
H     1.714000000    -2.358000000    -6.056000000
O    -2.491000000     0.149000000    -6.088000000
H    -2.450000000     1.038000000    -6.441000000
H    -2.823000000     0.260000000    -5.198000000
O     0.101000000     4.543000000     1.368000000
H     0.182000000     4.047000000     0.553000000
H     0.858000000     4.275000000     1.888000000
O     6.786000000    -0.700000000    -1.224000000
H     7.555000000    -0.569000000    -0.669000000
H     6.465000000    -1.570000000    -0.988000000
O     4.524000000    -0.863000000    -3.646000000
H     4.906000000    -1.104000000    -2.802000000
H     4.436000000    -1.693000000    -4.115000000
O     0.967000000    -0.890000000     7.657000000
H     0.287000000    -1.330000000     7.146000000
H     1.485000000    -0.415000000     7.007000000
O     1.061000000     2.837000000     7.293000000
H     0.540000000     3.640000000     7.275000000
H     0.735000000     2.324000000     6.553000000
O     6.541000000     1.164000000     3.767000000
H     6.727000000     1.843000000     4.415000000
H     7.315000000     1.153000000     3.203000000
O     0.170000000    -1.434000000    -5.418000000
H    -0.512000000    -0.852000000    -5.755000000
H     0.875000000    -0.846000000    -5.148000000
O    -1.307000000     4.372000000    -3.284000000
H    -1.770000000     4.457000000    -4.118000000
H    -0.381000000     4.357000000    -3.525000000
