144
-2795.80484
O    -0.243000000    -3.361000000     4.198000000
H    -0.109000000    -3.668000000     5.094000000
H    -0.056000000    -2.423000000     4.236000000
O    -3.566000000     4.763000000     4.660000000
H    -2.627000000     4.949000000     4.649000000
H    -3.980000000     5.625000000     4.702000000
O    -1.558000000     2.105000000     4.222000000
H    -2.362000000     1.894000000     3.748000000
H    -0.919000000     2.298000000     3.536000000
O    -3.269000000     3.220000000     1.337000000
H    -3.192000000     2.382000000     1.794000000
H    -4.183000000     3.258000000     1.059000000
O     5.272000000     3.956000000     1.817000000
H     5.009000000     4.113000000     2.724000000
H     4.469000000     4.077000000     1.310000000
O    -3.319000000     6.967000000     0.593000000
H    -2.627000000     6.432000000     0.980000000
H    -2.868000000     7.512000000    -0.052000000
O     1.684000000     5.561000000     2.796000000
H     1.782000000     4.888000000     3.469000000
H     1.391000000     5.082000000     2.020000000
O     5.291000000     1.987000000    -0.654000000
H     4.899000000     2.437000000     0.094000000
H     4.991000000     2.482000000    -1.417000000
O     1.804000000     1.669000000    -5.548000000
H     1.215000000     0.916000000    -5.497000000
H     1.774000000     2.056000000    -4.673000000
O     3.334000000     4.564000000    -0.033000000
H     2.416000000     4.353000000     0.138000000
H     3.550000000     4.068000000    -0.823000000
O    -0.846000000     4.904000000     5.252000000
H    -0.140000000     4.270000000     5.132000000
H    -0.456000000     5.600000000     5.780000000
O    -0.518000000    -6.986000000     1.181000000
H     0.119000000    -7.410000000     0.606000000
H    -0.057000000    -6.220000000     1.525000000
O     1.361000000    -2.051000000    -5.876000000
H     0.783000000    -1.409000000    -5.464000000
H     1.890000000    -2.394000000    -5.155000000
O    -1.808000000     2.877000000     7.162000000
H    -1.773000000     2.682000000     6.225000000
H    -1.339000000     3.707000000     7.251000000
O    -0.536000000     4.524000000    -1.428000000
H    -0.235000000     4.025000000    -0.668000000
H    -0.013000000     5.326000000    -1.410000000
O    -1.756000000     5.309000000     2.010000000
H    -0.815000000     5.169000000     2.113000000
H    -2.108000000     4.442000000     1.811000000
O    -0.541000000     0.322000000    -5.726000000
H    -1.350000000     0.053000000    -6.161000000
H    -0.834000000     0.838000000    -4.975000000
O     1.029000000     7.066000000    -0.748000000
H     0.381000000     7.557000000    -0.244000000
H     1.872000000     7.338000000    -0.384000000
O    -0.617000000    -0.203000000     5.406000000
H    -1.196000000    -0.636000000     6.033000000
H    -1.096000000     0.584000000     5.143000000
O    -3.795000000     0.970000000     2.906000000
H    -3.757000000     0.017000000     2.824000000
H    -4.446000000     1.125000000     3.590000000
O    -3.629000000    -3.223000000     0.506000000
H    -3.222000000    -4.015000000     0.152000000
H    -3.077000000    -2.982000000     1.249000000
O     3.034000000    -1.831000000    -1.148000000
H     2.761000000    -2.574000000    -0.610000000
H     2.818000000    -1.062000000    -0.620000000
O    -2.451000000    -3.311000000    -5.626000000
H    -2.529000000    -3.743000000    -4.775000000
H    -3.012000000    -2.539000000    -5.555000000
O     3.687000000     1.552000000     4.926000000
H     4.556000000     1.531000000     4.525000000
H     3.165000000     0.947000000     4.399000000
O    -4.555000000    -0.399000000    -2.349000000
H    -3.900000000     0.186000000    -1.968000000
H    -5.349000000     0.133000000    -2.400000000
O    -5.641000000    -0.401000000     0.702000000
H    -5.314000000    -0.751000000     1.531000000
H    -5.496000000     0.543000000     0.766000000
O     1.612000000     3.401000000     4.495000000
H     1.048000000     3.120000000     3.775000000
H     1.814000000     2.595000000     4.970000000
O    -3.562000000     5.015000000    -1.443000000
H    -4.008000000     5.421000000    -0.700000000
H    -2.630000000     5.093000000    -1.236000000
O     3.152000000     7.512000000     0.773000000
H     3.066000000     6.561000000     0.718000000
H     3.715000000     7.659000000     1.534000000
O     3.998000000     3.028000000    -2.804000000
H     4.504000000     3.725000000    -3.221000000
H     3.104000000     3.159000000    -3.122000000
O     4.056000000     4.261000000     4.378000000
H     4.369000000     4.175000000     5.279000000
H     3.118000000     4.078000000     4.432000000
O    -2.418000000     1.324000000    -0.993000000
H    -1.602000000     1.107000000    -0.540000000
H    -2.995000000     1.653000000    -0.304000000
O     3.043000000    -4.490000000    -0.258000000
H     3.036000000    -5.351000000    -0.675000000
H     2.236000000    -4.466000000     0.256000000
O    -4.271000000    -2.930000000    -2.133000000
H    -4.023000000    -3.111000000    -1.227000000
H    -4.328000000    -1.975000000    -2.180000000
O    -2.516000000    -5.224000000    -3.368000000
H    -2.624000000    -5.241000000    -2.417000000
H    -1.579000000    -5.359000000    -3.505000000
O    -2.041000000     7.645000000     3.510000000
H    -1.838000000     6.819000000     3.071000000
H    -1.784000000     8.319000000     2.881000000
O     0.418000000    -5.493000000    -3.668000000
H     1.114000000    -4.851000000    -3.805000000
H     0.670000000    -5.952000000    -2.867000000
O     1.884000000    -6.683000000    -1.684000000
H     1.935000000    -7.337000000    -0.987000000
H     2.251000000    -7.121000000    -2.452000000
O    -2.404000000    -2.478000000     2.943000000
H    -1.679000000    -2.980000000     3.316000000
H    -3.147000000    -2.667000000     3.516000000
O     1.764000000    -0.321000000     4.210000000
H     2.447000000    -0.779000000     4.699000000
H     1.039000000    -0.240000000     4.829000000
O     1.440000000     3.805000000    -3.565000000
H     0.745000000     3.959000000    -2.926000000
H     1.212000000     4.366000000    -4.306000000
O    -2.613000000    -5.723000000    -0.410000000
H    -3.425000000    -6.226000000    -0.473000000
H    -2.037000000    -6.264000000     0.131000000
O     5.293000000    -0.217000000    -2.345000000
H     5.053000000     0.641000000    -1.995000000
H     4.813000000    -0.841000000    -1.801000000
O     1.298000000    -4.880000000     1.895000000
H     2.129000000    -5.348000000     1.976000000
H     1.077000000    -4.629000000     2.792000000
O    -1.586000000     1.695000000    -3.521000000
H    -2.081000000     2.455000000    -3.826000000
H    -1.964000000     1.490000000    -2.666000000
O     2.063000000     8.368000000     3.549000000
H     1.753000000     7.535000000     3.194000000
H     2.951000000     8.183000000     3.854000000
O     2.736000000    -3.327000000    -3.664000000
H     3.670000000    -3.503000000    -3.781000000
H     2.658000000    -3.046000000    -2.752000000
O     2.752000000    -0.574000000     1.873000000
H     2.405000000    -0.603000000     2.765000000
H     2.196000000     0.060000000     1.421000000
