144
-2811.94632
O    -4.854000000    -0.447000000    -7.486000000
H    -4.486000000    -1.009000000    -8.168000000
H    -4.263000000    -0.556000000    -6.741000000
O    -3.441000000     4.072000000     4.839000000
H    -4.311000000     4.398000000     4.609000000
H    -3.518000000     3.120000000     4.775000000
O     2.166000000    -2.864000000    -3.846000000
H     2.971000000    -2.381000000    -4.033000000
H     2.307000000    -3.237000000    -2.976000000
O    -1.922000000     3.642000000    -2.019000000
H    -1.852000000     4.099000000    -2.857000000
H    -1.812000000     2.718000000    -2.240000000
O    -0.541000000    -4.976000000    -0.007000000
H    -0.607000000    -5.840000000     0.399000000
H     0.331000000    -4.664000000     0.233000000
O     4.329000000    -4.146000000     0.080000000
H     3.500000000    -4.273000000     0.542000000
H     4.936000000    -4.750000000     0.508000000
O    -3.645000000    -1.917000000     4.771000000
H    -3.000000000    -1.247000000     4.546000000
H    -3.368000000    -2.237000000     5.630000000
O     4.673000000    -1.823000000    -3.053000000
H     5.554000000    -1.690000000    -3.402000000
H     4.697000000    -1.426000000    -2.183000000
O    -3.106000000    -0.400000000    -5.203000000
H    -2.233000000    -0.363000000    -4.812000000
H    -3.609000000     0.261000000    -4.727000000
O    -4.389000000    -0.299000000     1.699000000
H    -4.178000000    -1.211000000     1.499000000
H    -4.438000000     0.129000000     0.844000000
O     6.263000000    -0.848000000     4.751000000
H     7.109000000    -0.407000000     4.831000000
H     5.626000000    -0.135000000     4.699000000
O    -1.864000000     5.008000000    -4.509000000
H    -1.216000000     5.683000000    -4.308000000
H    -2.479000000     5.436000000    -5.105000000
O    -3.163000000    -3.285000000    -5.537000000
H    -3.218000000    -2.366000000    -5.799000000
H    -2.520000000    -3.294000000    -4.828000000
O     4.000000000     0.732000000     5.220000000
H     3.185000000     0.236000000     5.296000000
H     3.881000000     1.270000000     4.438000000
O     3.029000000    -6.017000000     2.280000000
H     3.435000000    -5.343000000     2.824000000
H     3.407000000    -6.838000000     2.594000000
O     0.494000000    -3.364000000     4.627000000
H     0.163000000    -3.031000000     3.792000000
H    -0.275000000    -3.384000000     5.197000000
O     1.162000000    -5.321000000    -3.377000000
H     1.367000000    -4.603000000    -3.976000000
H     0.287000000    -5.116000000    -3.047000000
O     0.775000000     3.459000000    -1.799000000
H     0.960000000     4.226000000    -1.257000000
H    -0.167000000     3.320000000    -1.704000000
O    -0.784000000    -3.201000000    -3.239000000
H    -0.460000000    -2.306000000    -3.341000000
H    -1.212000000    -3.205000000    -2.383000000
O    -0.893000000     5.282000000     4.470000000
H    -1.061000000     6.068000000     4.990000000
H    -1.750000000     4.865000000     4.382000000
O    -0.125000000     2.553000000    -5.274000000
H    -0.348000000     1.855000000    -4.658000000
H    -0.821000000     3.202000000    -5.163000000
O     3.161000000     3.528000000    -3.258000000
H     3.036000000     2.903000000    -3.972000000
H     2.326000000     3.529000000    -2.791000000
O    -1.812000000     5.066000000     0.350000000
H    -0.916000000     5.384000000     0.242000000
H    -2.004000000     4.610000000    -0.470000000
O     3.030000000     0.035000000    -6.206000000
H     2.137000000    -0.310000000    -6.214000000
H     3.505000000    -0.517000000    -6.827000000
O    -3.685000000     2.443000000    -6.718000000
H    -3.679000000     1.525000000    -6.990000000
H    -4.252000000     2.462000000    -5.948000000
O     2.247000000    -5.169000000     5.557000000
H     1.512000000    -4.646000000     5.237000000
H     2.609000000    -4.656000000     6.280000000
O    -5.225000000     3.648000000     0.615000000
H    -4.446000000     4.197000000     0.700000000
H    -5.937000000     4.187000000     0.961000000
O    -3.471000000     1.486000000     6.811000000
H    -2.606000000     1.332000000     6.432000000
H    -4.081000000     1.326000000     6.091000000
O    -4.982000000     1.193000000    -0.662000000
H    -5.177000000     2.020000000    -0.222000000
H    -4.478000000     1.446000000    -1.435000000
O     4.740000000     3.062000000     3.412000000
H     3.803000000     3.202000000     3.275000000
H     5.023000000     2.568000000     2.642000000
O     1.950000000    -0.831000000     5.461000000
H     1.838000000    -1.765000000     5.287000000
H     1.228000000    -0.609000000     6.050000000
O    -2.388000000    -3.124000000    -0.964000000
H    -2.749000000    -2.816000000    -0.133000000
H    -1.728000000    -3.771000000    -0.713000000
O     0.689000000     3.227000000     4.780000000
H     0.417000000     4.115000000     4.548000000
H     1.359000000     3.005000000     4.133000000
O    -3.476000000    -2.889000000     1.598000000
H    -4.101000000    -3.515000000     1.235000000
H    -3.437000000    -3.103000000     2.530000000
O    -5.405000000    -1.526000000    -1.435000000
H    -4.695000000    -1.846000000    -1.991000000
H    -5.223000000    -0.592000000    -1.328000000
O     0.673000000    -1.594000000    -5.663000000
H     1.224000000    -2.037000000    -5.018000000
H     0.066000000    -1.070000000    -5.140000000
O    -1.238000000     1.460000000     5.225000000
H    -1.826000000     1.326000000     4.482000000
H    -0.604000000     2.107000000     4.915000000
O    -2.758000000     1.295000000     3.124000000
H    -2.658000000     0.688000000     2.390000000
H    -3.701000000     1.316000000     3.290000000
O     2.177000000     3.509000000     2.443000000
H     2.074000000     4.431000000     2.208000000
H     2.236000000     3.053000000     1.604000000
O     1.699000000    -4.139000000     0.892000000
H     1.849000000    -4.919000000     1.426000000
H     1.138000000    -3.583000000     1.433000000
O    -0.537000000    -3.106000000     2.190000000
H    -0.757000000    -2.559000000     1.436000000
H    -1.087000000    -3.883000000     2.091000000
O     2.411000000     2.794000000    -6.104000000
H     2.857000000     1.949000000    -6.161000000
H     1.504000000     2.572000000    -5.893000000
O    -0.188000000    -3.895000000    -7.148000000
H    -0.243000000    -4.039000000    -6.203000000
H     0.127000000    -2.995000000    -7.236000000
O    -4.478000000     2.391000000    -3.936000000
H    -3.611000000     2.232000000    -3.561000000
H    -4.775000000     3.198000000    -3.516000000
O     4.976000000    -1.425000000    -0.259000000
H     5.380000000    -1.409000000     0.608000000
H     4.606000000    -2.305000000    -0.335000000
O    -3.800000000     5.855000000     1.974000000
H    -2.989000000     5.541000000     1.574000000
H    -3.515000000     6.306000000     2.769000000
O     5.401000000     1.187000000    -0.231000000
H     4.678000000     1.525000000    -0.760000000
H     5.319000000     0.235000000    -0.294000000
O     2.614000000     1.462000000    -0.928000000
H     2.062000000     2.086000000    -1.399000000
H     2.036000000     0.720000000    -0.746000000
