144
-2793.36250
O     1.578000000     5.603000000    -3.695000000
H     0.698000000     5.928000000    -3.504000000
H     1.557000000     4.684000000    -3.427000000
O    -2.960000000    -0.713000000     3.942000000
H    -3.752000000    -1.238000000     3.829000000
H    -2.328000000    -1.099000000     3.335000000
O     3.668000000    -2.439000000    -2.638000000
H     3.853000000    -1.731000000    -2.021000000
H     3.280000000    -2.001000000    -3.395000000
O    -5.060000000    -2.421000000     3.518000000
H    -4.971000000    -2.688000000     2.603000000
H    -5.709000000    -3.025000000     3.881000000
O     0.459000000    -4.953000000    -0.509000000
H     0.178000000    -5.575000000     0.162000000
H     1.379000000    -4.782000000    -0.308000000
O    -4.998000000    -3.254000000     0.982000000
H    -5.566000000    -3.359000000     0.220000000
H    -4.228000000    -3.787000000     0.782000000
O     6.294000000     3.685000000     1.608000000
H     5.344000000     3.791000000     1.657000000
H     6.419000000     2.800000000     1.263000000
O    -5.920000000    -4.002000000    -1.355000000
H    -6.741000000    -4.464000000    -1.525000000
H    -5.994000000    -3.190000000    -1.855000000
O     7.693000000     0.715000000    -0.857000000
H     8.597000000     0.968000000    -0.670000000
H     7.298000000     0.584000000     0.005000000
O    -0.221000000    -3.953000000    -2.999000000
H     0.232000000    -4.224000000    -2.201000000
H    -1.093000000    -4.340000000    -2.923000000
O    -0.453000000    -2.144000000    -5.030000000
H     0.343000000    -2.646000000    -5.205000000
H    -0.816000000    -2.542000000    -4.238000000
O     3.297000000     4.437000000     2.526000000
H     3.039000000     3.570000000     2.211000000
H     3.191000000     4.387000000     3.476000000
O    -2.238000000    -5.671000000    -3.527000000
H    -2.939000000    -5.310000000    -4.070000000
H    -2.638000000    -6.422000000    -3.088000000
O    -2.318000000    -4.352000000     0.974000000
H    -1.409000000    -4.481000000     0.703000000
H    -2.700000000    -5.230000000     0.957000000
O    -1.250000000    -4.473000000     5.285000000
H    -0.499000000    -4.292000000     5.850000000
H    -1.166000000    -3.844000000     4.568000000
O     4.694000000     0.246000000    -3.339000000
H     3.900000000    -0.195000000    -3.642000000
H     4.712000000     0.086000000    -2.396000000
O    -0.140000000     4.388000000    -1.441000000
H    -0.923000000     3.884000000    -1.219000000
H     0.009000000     4.947000000    -0.678000000
O    -2.017000000     5.444000000     3.184000000
H    -2.219000000     6.275000000     2.754000000
H    -1.171000000     5.592000000     3.607000000
O    -0.909000000     1.963000000    -4.659000000
H    -0.964000000     1.448000000    -3.853000000
H    -0.503000000     2.787000000    -4.389000000
O     2.746000000     7.248000000     0.662000000
H     3.058000000     7.135000000    -0.236000000
H     2.069000000     6.579000000     0.766000000
O     3.018000000     4.243000000     5.206000000
H     3.827000000     4.538000000     5.625000000
H     2.394000000     4.155000000     5.926000000
O     4.411000000     1.314000000     3.566000000
H     3.892000000     1.532000000     2.792000000
H     3.764000000     1.070000000     4.228000000
O    -3.533000000     3.068000000     3.607000000
H    -3.454000000     3.977000000     3.319000000
H    -4.422000000     2.814000000     3.358000000
O     6.970000000     0.480000000     1.700000000
H     7.560000000     0.694000000     2.423000000
H     6.308000000    -0.089000000     2.093000000
O    -6.694000000    -0.167000000     0.965000000
H    -7.633000000    -0.302000000     0.834000000
H    -6.467000000    -0.751000000     1.688000000
O    -3.835000000    -3.475000000    -5.053000000
H    -4.012000000    -2.637000000    -4.628000000
H    -4.401000000    -4.099000000    -4.599000000
O     2.698000000    -1.149000000    -4.975000000
H     2.207000000    -0.417000000    -5.349000000
H     2.930000000    -1.692000000    -5.728000000
O     4.836000000    -1.106000000     2.810000000
H     4.056000000    -1.558000000     3.130000000
H     4.713000000    -0.196000000     3.077000000
O     0.326000000     4.252000000     3.557000000
H    -0.532000000     3.834000000     3.487000000
H     0.937000000     3.608000000     3.198000000
O     1.482000000     0.965000000     4.613000000
H     1.598000000     1.456000000     3.800000000
H     1.872000000     1.522000000     5.287000000
O    -1.748000000    -3.015000000    -6.955000000
H    -2.496000000    -3.435000000    -6.531000000
H    -1.276000000    -2.589000000    -6.240000000
O     6.019000000     2.383000000     5.742000000
H     5.574000000     2.084000000     4.949000000
H     6.825000000     1.868000000     5.773000000
O    -5.475000000     0.791000000    -1.465000000
H    -6.315000000     0.909000000    -1.910000000
H    -5.689000000     0.292000000    -0.677000000
O     3.522000000     5.594000000    -1.712000000
H     3.696000000     4.676000000    -1.502000000
H     2.761000000     5.567000000    -2.292000000
O     0.009000000     6.368000000     5.598000000
H     0.090000000     5.528000000     5.148000000
H    -0.829000000     6.313000000     6.059000000
O    -0.483000000    -0.924000000     5.612000000
H    -1.299000000    -0.679000000     5.177000000
H     0.183000000    -0.373000000     5.200000000
O    -5.336000000    -1.445000000    -3.821000000
H    -5.289000000    -0.807000000    -4.533000000
H    -5.039000000    -0.963000000    -3.049000000
O     3.005000000     2.547000000    -5.552000000
H     3.189000000     1.671000000    -5.890000000
H     2.194000000     2.447000000    -5.054000000
O     1.342000000    -2.399000000     1.395000000
H     1.499000000    -1.767000000     0.693000000
H     1.945000000    -3.119000000     1.208000000
O     0.837000000     5.352000000     0.897000000
H     1.353000000     4.584000000     1.143000000
H     0.597000000     5.755000000     1.731000000
O    -2.851000000     2.824000000    -1.648000000
H    -3.514000000     2.325000000    -2.126000000
H    -2.946000000     2.540000000    -0.740000000
O     0.540000000     0.259000000    -5.820000000
H     0.021000000     0.912000000    -5.351000000
H     0.206000000    -0.582000000    -5.507000000
O    -3.466000000     1.277000000     5.871000000
H    -3.570000000     0.349000000     5.659000000
H    -3.561000000     1.727000000     5.032000000
O     2.382000000    -1.605000000     3.760000000
H     2.150000000    -0.737000000     4.090000000
H     1.932000000    -1.669000000     2.917000000
O     1.626000000     2.926000000    -2.939000000
H     1.121000000     3.411000000    -2.286000000
H     2.535000000     3.012000000    -2.651000000
O    -0.967000000    -3.021000000     2.976000000
H    -1.558000000    -3.517000000     2.411000000
H    -0.259000000    -2.740000000     2.395000000
O     4.554000000     0.072000000    -0.587000000
H     5.035000000    -0.541000000    -0.030000000
H     4.195000000     0.717000000     0.022000000
O     4.017000000     2.754000000    -2.032000000
H     4.493000000     2.190000000    -2.642000000
H     4.019000000     2.269000000    -1.207000000
