144
-2814.40046
O     2.692000000    -6.577000000    -0.777000000
H     2.743000000    -6.570000000    -1.733000000
H     2.497000000    -5.670000000    -0.540000000
O    -6.391000000     0.605000000     1.146000000
H    -7.259000000     0.874000000     1.444000000
H    -6.376000000    -0.344000000     1.275000000
O     3.544000000    -3.142000000    -2.958000000
H     3.342000000    -2.494000000    -2.282000000
H     4.493000000    -3.078000000    -3.074000000
O    -5.878000000    -2.266000000     1.772000000
H    -5.185000000    -2.156000000     1.121000000
H    -5.839000000    -3.192000000     2.009000000
O    -5.855000000     1.521000000     5.273000000
H    -6.090000000     2.351000000     5.688000000
H    -5.096000000     1.732000000     4.729000000
O    -6.055000000    -2.883000000    -1.717000000
H    -5.345000000    -2.820000000    -2.355000000
H    -5.988000000    -3.773000000    -1.371000000
O     4.591000000     0.364000000     5.548000000
H     4.980000000    -0.510000000     5.570000000
H     3.835000000     0.275000000     4.967000000
O     1.673000000     1.911000000     5.479000000
H     1.775000000     1.487000000     6.331000000
H     1.177000000     1.281000000     4.955000000
O    -1.434000000     3.362000000     4.587000000
H    -0.647000000     3.790000000     4.924000000
H    -2.042000000     4.080000000     4.413000000
O    -0.880000000    -2.488000000    -3.393000000
H    -0.885000000    -3.304000000    -3.893000000
H    -0.057000000    -2.063000000    -3.635000000
O    -2.823000000     2.477000000    -4.381000000
H    -2.893000000     2.775000000    -5.288000000
H    -2.362000000     1.641000000    -4.438000000
O     5.434000000     1.442000000     1.370000000
H     4.649000000     1.068000000     0.969000000
H     6.160000000     0.976000000     0.956000000
O     1.581000000     2.769000000    -2.230000000
H     1.683000000     3.254000000    -1.411000000
H     0.634000000     2.681000000    -2.340000000
O     2.048000000    -4.176000000     0.714000000
H     2.747000000    -4.365000000     1.339000000
H     1.673000000    -3.349000000     1.017000000
O     8.067000000     0.093000000    -2.566000000
H     8.233000000    -0.369000000    -3.387000000
H     7.451000000    -0.469000000    -2.095000000
O     2.828000000     1.202000000    -4.448000000
H     3.554000000     0.972000000    -3.867000000
H     2.166000000     1.577000000    -3.867000000
O    -4.708000000    -0.911000000     5.082000000
H    -4.649000000     0.042000000     5.154000000
H    -5.089000000    -1.191000000     5.915000000
O     6.477000000     1.786000000     3.906000000
H     6.047000000     1.633000000     3.064000000
H     5.977000000     1.260000000     4.530000000
O    -3.190000000     1.539000000     3.614000000
H    -2.400000000     1.980000000     3.926000000
H    -2.868000000     0.746000000     3.186000000
O    -7.225000000    -0.460000000     3.655000000
H    -6.596000000    -0.975000000     3.151000000
H    -6.685000000     0.100000000     4.213000000
O    -6.134000000     3.593000000     2.284000000
H    -6.170000000     3.878000000     1.371000000
H    -5.790000000     2.701000000     2.243000000
O     6.962000000    -2.863000000     3.879000000
H     6.546000000    -2.339000000     3.194000000
H     7.534000000    -2.247000000     4.337000000
O     1.203000000    -4.310000000    -1.888000000
H     1.243000000    -3.948000000    -1.003000000
H     1.906000000    -3.865000000    -2.361000000
O    -5.661000000     2.124000000    -1.220000000
H    -5.140000000     1.709000000    -0.533000000
H    -6.433000000     1.565000000    -1.307000000
O     4.578000000    -4.191000000     2.344000000
H     5.057000000    -4.806000000     1.788000000
H     4.969000000    -3.339000000     2.152000000
O     3.388000000    -3.566000000    -5.563000000
H     4.024000000    -4.278000000    -5.624000000
H     3.333000000    -3.373000000    -4.627000000
O     5.927000000    -1.856000000     1.615000000
H     5.077000000    -1.467000000     1.409000000
H     6.442000000    -1.743000000     0.815000000
O    -0.781000000     5.785000000     1.594000000
H    -1.474000000     5.228000000     1.242000000
H    -0.054000000     5.185000000     1.763000000
O     2.873000000     2.979000000     3.145000000
H     3.410000000     2.242000000     2.854000000
H     2.277000000     2.600000000     3.791000000
O    -2.457000000     4.088000000     0.491000000
H    -2.479000000     4.129000000    -0.465000000
H    -2.660000000     3.175000000     0.696000000
O    -7.250000000    -0.496000000    -2.039000000
H    -6.798000000    -1.271000000    -1.706000000
H    -7.752000000    -0.814000000    -2.789000000
O    -5.215000000     4.879000000    -2.410000000
H    -4.347000000     4.634000000    -2.091000000
H    -5.792000000     4.184000000    -2.093000000
O     3.121000000    -0.082000000     3.261000000
H     2.330000000    -0.620000000     3.292000000
H     3.468000000    -0.218000000     2.379000000
O    -3.737000000    -3.071000000    -3.151000000
H    -2.989000000    -2.493000000    -3.302000000
H    -3.381000000    -3.954000000    -3.247000000
O     5.283000000    -1.196000000    -4.849000000
H     6.136000000    -1.554000000    -5.096000000
H     4.698000000    -1.461000000    -5.559000000
O    -1.937000000    -3.399000000    -0.335000000
H    -1.535000000    -3.056000000    -1.133000000
H    -2.244000000    -4.273000000    -0.579000000
O     2.056000000     4.178000000     0.041000000
H     2.091000000     3.853000000     0.941000000
H     2.540000000     5.003000000     0.065000000
O    -2.399000000     4.112000000    -2.141000000
H    -1.587000000     4.553000000    -2.392000000
H    -2.606000000     3.549000000    -2.886000000
O    -1.388000000    -0.010000000    -4.971000000
H    -2.212000000    -0.496000000    -4.977000000
H    -0.738000000    -0.644000000    -4.669000000
O    -0.341000000     0.328000000     4.665000000
H    -0.705000000    -0.169000000     5.397000000
H    -0.669000000    -0.119000000     3.885000000
O    -6.238000000     1.195000000    -3.949000000
H    -6.449000000     0.471000000    -3.359000000
H    -5.484000000     1.623000000    -3.544000000
O     0.112000000    -2.336000000     1.276000000
H    -0.671000000    -2.680000000     0.848000000
H     0.051000000    -1.387000000     1.160000000
O     1.163000000    -1.223000000    -4.847000000
H     1.359000000    -0.310000000    -5.061000000
H     1.853000000    -1.724000000    -5.281000000
O    -2.544000000    -1.285000000     3.446000000
H    -2.239000000    -2.192000000     3.452000000
H    -3.407000000    -1.320000000     3.858000000
O     6.323000000    -1.891000000    -1.392000000
H     6.536000000    -2.815000000    -1.259000000
H     5.388000000    -1.830000000    -1.197000000
O     1.597000000    -2.215000000     3.623000000
H     1.876000000    -3.128000000     3.692000000
H     1.003000000    -2.203000000     2.873000000
O     5.109000000     0.588000000    -2.725000000
H     5.182000000    -0.057000000    -3.428000000
H     4.737000000     0.100000000    -1.990000000
O    -1.714000000     1.369000000     7.078000000
H    -1.040000000     1.510000000     6.414000000
H    -2.408000000     1.988000000     6.849000000
