144
-2832.73324
O     1.874000000    -3.521000000     4.361000000
H     1.844000000    -4.390000000     3.961000000
H     1.000000000    -3.397000000     4.731000000
O    -4.170000000    -0.582000000    -1.534000000
H    -4.509000000    -0.815000000    -2.398000000
H    -3.855000000     0.316000000    -1.634000000
O     2.015000000     6.027000000    -3.510000000
H     1.554000000     6.724000000    -3.976000000
H     2.913000000     6.073000000    -3.839000000
O     0.751000000    -4.065000000    -4.664000000
H     1.548000000    -4.109000000    -5.192000000
H     0.045000000    -3.960000000    -5.302000000
O     1.370000000    -3.503000000     0.241000000
H     1.746000000    -2.732000000     0.664000000
H     0.886000000    -3.154000000    -0.508000000
O    -0.552000000     1.676000000    -7.188000000
H    -0.416000000     1.243000000    -6.346000000
H    -0.807000000     2.569000000    -6.960000000
O     0.713000000     5.385000000     3.579000000
H     0.883000000     4.678000000     4.201000000
H     1.564000000     5.808000000     3.460000000
O    -2.740000000    -3.592000000    -1.791000000
H    -3.300000000    -3.309000000    -1.068000000
H    -2.943000000    -4.521000000    -1.901000000
O     1.685000000     2.926000000     4.824000000
H     1.674000000     2.008000000     4.554000000
H     2.592000000     3.089000000     5.081000000
O     4.775000000     2.277000000    -5.163000000
H     5.114000000     3.098000000    -5.521000000
H     5.069000000     2.273000000    -4.253000000
O    -1.634000000     1.654000000     5.007000000
H    -0.777000000     2.080000000     5.002000000
H    -1.922000000     1.683000000     4.095000000
O    -3.233000000    -4.505000000     3.569000000
H    -3.032000000    -3.748000000     4.120000000
H    -4.052000000    -4.849000000     3.924000000
O     2.395000000    -2.005000000    -4.046000000
H     1.476000000    -2.217000000    -4.208000000
H     2.462000000    -1.070000000    -4.238000000
O     6.388000000     1.079000000    -2.401000000
H     5.594000000     1.166000000    -1.874000000
H     6.103000000     0.611000000    -3.186000000
O     6.836000000     0.473000000     1.109000000
H     6.650000000     0.307000000     2.033000000
H     5.974000000     0.498000000     0.693000000
O    -1.667000000    -2.031000000    -4.007000000
H    -2.071000000    -2.530000000    -3.298000000
H    -2.205000000    -2.225000000    -4.774000000
O     1.936000000     4.694000000    -0.888000000
H     1.814000000     3.770000000    -1.104000000
H     2.051000000     5.125000000    -1.735000000
O     3.955000000     3.332000000     0.652000000
H     3.260000000     3.782000000     0.172000000
H     4.168000000     3.922000000     1.375000000
O     1.002000000    -0.385000000    -8.042000000
H     0.450000000     0.396000000    -7.994000000
H     1.456000000    -0.411000000    -7.200000000
O     2.805000000     3.643000000    -7.144000000
H     2.407000000     4.072000000    -6.387000000
H     3.060000000     2.778000000    -6.823000000
O     4.586000000     3.939000000    -2.406000000
H     4.768000000     4.171000000    -1.495000000
H     3.725000000     3.521000000    -2.378000000
O    -0.251000000     4.608000000     1.141000000
H     0.427000000     4.749000000     0.481000000
H     0.123000000     4.957000000     1.949000000
O    -4.440000000    -2.943000000     0.094000000
H    -4.689000000    -2.188000000    -0.439000000
H    -4.919000000    -2.824000000     0.915000000
O    -3.797000000     1.895000000     6.416000000
H    -3.941000000     2.632000000     5.823000000
H    -2.962000000     1.520000000     6.135000000
O    -2.201000000    -0.979000000     6.226000000
H    -1.849000000    -0.940000000     7.116000000
H    -1.839000000    -0.206000000     5.792000000
O    -1.903000000     2.258000000     2.294000000
H    -2.665000000     1.903000000     1.838000000
H    -1.165000000     2.061000000     1.717000000
O    -1.547000000     3.667000000    -3.288000000
H    -1.443000000     4.606000000    -3.446000000
H    -0.823000000     3.263000000    -3.767000000
O     2.660000000     0.487000000    -5.280000000
H     3.397000000     1.091000000    -5.186000000
H     1.988000000     0.837000000    -4.696000000
O    -3.796000000     1.761000000    -2.775000000
H    -3.247000000     2.534000000    -2.908000000
H    -4.609000000     1.962000000    -3.238000000
O    -2.514000000     3.945000000    -0.438000000
H    -2.009000000     3.485000000    -1.109000000
H    -1.867000000     4.186000000     0.225000000
O    -5.449000000    -1.913000000     2.846000000
H    -6.206000000    -2.469000000     2.663000000
H    -5.398000000    -1.884000000     3.801000000
O    -0.895000000     0.513000000    -4.943000000
H    -1.377000000    -0.108000000    -4.397000000
H    -0.163000000     0.795000000    -4.395000000
O     1.232000000     3.558000000    -4.829000000
H     1.359000000     2.774000000    -4.295000000
H     1.626000000     4.264000000    -4.316000000
O     2.571000000    -2.038000000     2.329000000
H     1.958000000    -2.436000000     2.947000000
H     3.225000000    -2.718000000     2.169000000
O    -4.239000000     0.193000000     1.572000000
H    -4.392000000     0.021000000     0.643000000
H    -4.699000000    -0.514000000     2.026000000
O     7.123000000     3.721000000    -3.350000000
H     7.742000000     3.030000000    -3.117000000
H     6.366000000     3.565000000    -2.785000000
O    -0.050000000    -5.948000000     0.565000000
H     0.418000000    -5.114000000     0.524000000
H    -0.949000000    -5.708000000     0.791000000
O    -0.766000000    -3.145000000     5.021000000
H    -1.161000000    -2.353000000     5.384000000
H    -0.913000000    -3.814000000     5.690000000
O     3.427000000    -3.447000000    -1.891000000
H     3.154000000    -2.805000000    -2.546000000
H     2.616000000    -3.696000000    -1.447000000
O     1.812000000    -0.182000000     4.570000000
H     1.851000000    -0.395000000     3.638000000
H     2.627000000    -0.533000000     4.930000000
O    -3.782000000    -3.235000000     6.743000000
H    -3.875000000    -2.882000000     7.628000000
H    -3.079000000    -2.718000000     6.351000000
O     0.261000000    -3.686000000    -2.132000000
H     0.403000000    -3.817000000    -3.069000000
H    -0.610000000    -3.294000000    -2.074000000
O     1.370000000    -6.263000000     2.872000000
H     1.958000000    -6.983000000     2.647000000
H     0.736000000    -6.238000000     2.155000000
O    -3.162000000     0.606000000    -6.735000000
H    -2.323000000     0.768000000    -6.302000000
H    -3.171000000     1.213000000    -7.474000000
O    -2.561000000     5.080000000     2.749000000
H    -1.898000000     4.901000000     2.083000000
H    -2.827000000     4.215000000     3.062000000
O    -2.713000000    -4.933000000     1.015000000
H    -3.172000000    -4.361000000     0.399000000
H    -2.928000000    -4.578000000     1.877000000
O     4.851000000    -1.834000000    -0.055000000
H     4.481000000    -0.960000000     0.067000000
H     4.336000000    -2.215000000    -0.767000000
O     4.287000000     0.757000000    -0.482000000
H     3.734000000     1.056000000    -1.204000000
H     4.032000000     1.306000000     0.259000000
