144
-2828.57490
O    -2.124000000    -3.180000000     1.616000000
H    -2.495000000    -2.317000000     1.797000000
H    -1.652000000    -3.070000000     0.790000000
O    -8.165000000    -0.339000000     0.188000000
H    -8.520000000    -1.228000000     0.174000000
H    -7.489000000    -0.340000000    -0.489000000
O    -4.361000000     3.498000000     4.415000000
H    -4.718000000     2.796000000     4.959000000
H    -3.998000000     3.048000000     3.652000000
O     1.671000000    -4.162000000    -2.744000000
H     1.539000000    -4.215000000    -3.691000000
H     2.326000000    -3.474000000    -2.631000000
O    -2.211000000     5.310000000     0.475000000
H    -2.150000000     6.256000000     0.608000000
H    -2.390000000     5.210000000    -0.460000000
O    -0.401000000    -2.882000000    -0.591000000
H     0.063000000    -2.045000000    -0.559000000
H     0.092000000    -3.405000000    -1.222000000
O     1.138000000    -3.737000000     2.044000000
H     1.008000000    -3.966000000     2.964000000
H     0.441000000    -3.109000000     1.853000000
O    -7.566000000    -1.222000000    -3.925000000
H    -6.984000000    -1.131000000    -3.170000000
H    -7.578000000    -2.162000000    -4.106000000
O    -6.529000000     0.217000000     2.589000000
H    -6.688000000     0.045000000     1.660000000
H    -6.773000000     1.134000000     2.708000000
O     5.752000000    -2.783000000     3.991000000
H     5.424000000    -1.895000000     4.138000000
H     5.147000000    -3.158000000     3.351000000
O    -2.298000000     4.892000000    -2.214000000
H    -3.081000000     4.376000000    -2.406000000
H    -2.299000000     5.584000000    -2.876000000
O    -3.332000000    -1.128000000    -6.221000000
H    -3.426000000    -1.192000000    -7.171000000
H    -3.717000000    -0.281000000    -5.998000000
O     4.989000000    -0.246000000     4.882000000
H     5.388000000    -0.139000000     5.745000000
H     4.110000000    -0.579000000     5.063000000
O    -1.157000000    -3.892000000     4.372000000
H    -1.327000000    -3.366000000     3.591000000
H    -0.980000000    -4.771000000     4.036000000
O     4.989000000     2.225000000    -3.943000000
H     4.728000000     1.317000000    -3.789000000
H     5.936000000     2.229000000    -3.803000000
O    -0.323000000     4.135000000     2.406000000
H     0.050000000     4.992000000     2.198000000
H    -1.083000000     4.058000000     1.829000000
O    -5.983000000     3.300000000    -4.388000000
H    -5.789000000     3.130000000    -3.466000000
H    -5.740000000     2.490000000    -4.837000000
O     5.721000000     3.354000000     3.662000000
H     6.149000000     4.112000000     3.265000000
H     4.792000000     3.584000000     3.678000000
O    -2.746000000    -2.412000000    -2.604000000
H    -2.927000000    -1.567000000    -3.016000000
H    -2.397000000    -2.187000000    -1.741000000
O     3.888000000     3.462000000     0.105000000
H     4.368000000     2.637000000     0.174000000
H     3.129000000     3.345000000     0.676000000
O     2.152000000     1.697000000    -3.666000000
H     2.919000000     2.185000000    -3.964000000
H     2.433000000     1.285000000    -2.848000000
O     4.387000000    -0.610000000    -5.069000000
H     3.813000000    -0.091000000    -5.631000000
H     5.249000000    -0.543000000    -5.480000000
O    -0.658000000    -2.116000000    -5.107000000
H    -0.186000000    -1.369000000    -5.476000000
H    -1.571000000    -1.969000000    -5.355000000
O     2.131000000    -4.601000000     4.706000000
H     1.926000000    -4.936000000     5.579000000
H     2.959000000    -5.024000000     4.475000000
O    -5.136000000    -3.639000000    -3.182000000
H    -4.318000000    -3.333000000    -2.790000000
H    -4.888000000    -3.928000000    -4.060000000
O     4.567000000    -4.104000000     1.948000000
H     3.778000000    -4.194000000     1.414000000
H     5.277000000    -4.007000000     1.312000000
O     5.926000000    -0.129000000    -0.042000000
H     5.430000000     0.166000000     0.722000000
H     6.157000000    -1.036000000     0.158000000
O    -3.962000000     2.407000000     2.005000000
H    -3.061000000     2.691000000     1.851000000
H    -4.322000000     2.265000000     1.129000000
O     3.530000000     2.341000000     6.177000000
H     4.055000000     2.235000000     5.384000000
H     2.837000000     1.686000000     6.096000000
O     8.147000000     1.721000000    -0.426000000
H     7.306000000     1.281000000    -0.303000000
H     8.124000000     2.033000000    -1.331000000
O    -1.776000000     0.867000000     7.493000000
H    -0.967000000     1.217000000     7.868000000
H    -1.652000000     0.939000000     6.547000000
O     1.189000000     1.134000000     5.233000000
H     0.242000000     1.021000000     5.156000000
H     1.559000000     0.449000000     4.676000000
O    -1.222000000     3.373000000     5.052000000
H    -1.813000000     4.102000000     5.240000000
H    -0.932000000     3.525000000     4.152000000
O    -5.877000000    -0.546000000    -1.775000000
H    -5.296000000    -1.301000000    -1.683000000
H    -5.310000000     0.211000000    -1.629000000
O     0.208000000     0.427000000    -5.701000000
H    -0.669000000     0.611000000    -5.365000000
H     0.794000000     0.656000000    -4.979000000
O     4.872000000     0.857000000     2.347000000
H     4.550000000     0.553000000     3.196000000
H     5.337000000     1.671000000     2.545000000
O    -1.841000000     1.398000000    -4.363000000
H    -1.675000000     2.321000000    -4.175000000
H    -2.492000000     1.134000000    -3.712000000
O    -1.380000000     0.603000000     4.635000000
H    -2.212000000     0.186000000     4.413000000
H    -1.467000000     1.500000000     4.311000000
O    -3.404000000    -0.471000000     3.266000000
H    -4.178000000     0.061000000     3.084000000
H    -3.754000000    -1.322000000     3.530000000
O     2.301000000     2.941000000     2.078000000
H     2.477000000     3.409000000     2.895000000
H     1.373000000     2.712000000     2.129000000
O     2.758000000    -1.776000000     5.573000000
H     2.585000000    -2.013000000     6.484000000
H     2.631000000    -2.589000000     5.086000000
O     4.096000000    -2.610000000    -3.160000000
H     4.872000000    -3.163000000    -3.070000000
H     4.221000000    -2.155000000    -3.993000000
O     0.339000000     3.828000000    -3.822000000
H     0.909000000     3.080000000    -3.999000000
H     0.184000000     3.793000000    -2.878000000
O     4.111000000     0.181000000    -2.170000000
H     4.182000000    -0.744000000    -2.407000000
H     4.758000000     0.301000000    -1.475000000
O    -4.668000000     3.292000000    -1.875000000
H    -4.254000000     2.502000000    -1.528000000
H    -4.876000000     3.813000000    -1.100000000
O     2.490000000    -6.053000000     1.680000000
H     2.153000000    -6.741000000     2.253000000
H     1.991000000    -5.273000000     1.922000000
O     6.995000000    -2.692000000     0.742000000
H     7.476000000    -2.786000000     1.564000000
H     7.144000000    -3.517000000     0.281000000
O    -0.245000000     3.705000000    -0.961000000
H    -0.605000000     3.211000000    -0.224000000
H    -1.001000000     4.154000000    -1.340000000
