144
-2792.05709
O     1.232000000    -0.709000000     3.075000000
H     1.873000000    -0.054000000     2.801000000
H     0.579000000    -0.212000000     3.569000000
O    -5.186000000    -1.992000000    -1.507000000
H    -5.857000000    -2.671000000    -1.576000000
H    -5.035000000    -1.712000000    -2.410000000
O     2.828000000     2.241000000    -5.802000000
H     3.317000000     2.739000000    -6.458000000
H     3.479000000     1.662000000    -5.406000000
O    -4.611000000    -2.778000000     3.098000000
H    -4.954000000    -1.903000000     2.918000000
H    -4.754000000    -3.263000000     2.285000000
O    -3.387000000    -4.256000000    -2.665000000
H    -3.656000000    -3.651000000    -3.356000000
H    -2.618000000    -3.844000000    -2.271000000
O     2.186000000    -2.903000000     5.029000000
H     1.541000000    -2.199000000     4.962000000
H     2.704000000    -2.831000000     4.227000000
O    -5.859000000    -0.382000000     2.766000000
H    -6.409000000    -0.391000000     1.982000000
H    -6.067000000     0.448000000     3.194000000
O    -2.673000000    -6.219000000     0.306000000
H    -2.816000000    -6.597000000    -0.562000000
H    -3.476000000    -5.731000000     0.490000000
O    -0.774000000     5.724000000     3.744000000
H    -1.209000000     5.501000000     2.921000000
H    -0.256000000     6.502000000     3.537000000
O     0.539000000    -2.984000000    -6.287000000
H     0.403000000    -2.446000000    -5.506000000
H     1.429000000    -3.324000000    -6.192000000
O     0.833000000    -5.079000000    -1.754000000
H     0.270000000    -4.340000000    -1.982000000
H     0.901000000    -5.587000000    -2.562000000
O     0.858000000     2.729000000     2.758000000
H     0.365000000     2.148000000     3.339000000
H     0.882000000     2.266000000     1.921000000
O     6.665000000     3.766000000    -4.504000000
H     6.560000000     4.501000000    -3.900000000
H     6.131000000     3.067000000    -4.126000000
O     6.524000000     3.467000000    -1.336000000
H     6.277000000     4.275000000    -0.888000000
H     5.802000000     3.298000000    -1.941000000
O    -2.488000000     4.197000000    -0.185000000
H    -2.882000000     3.489000000     0.324000000
H    -2.429000000     4.930000000     0.428000000
O     1.695000000     4.741000000     1.093000000
H     1.857000000     5.556000000     1.568000000
H     1.346000000     4.144000000     1.755000000
O     4.668000000    -4.364000000    -2.999000000
H     4.143000000    -4.942000000    -2.445000000
H     4.414000000    -3.481000000    -2.732000000
O     6.905000000     0.508000000    -1.921000000
H     6.560000000     0.905000000    -1.121000000
H     7.318000000    -0.304000000    -1.627000000
O     0.532000000     2.978000000    -4.462000000
H     0.709000000     3.539000000    -3.707000000
H     1.366000000     2.546000000    -4.641000000
O    -4.174000000     2.156000000     1.197000000
H    -3.827000000     1.835000000     2.029000000
H    -4.902000000     2.726000000     1.444000000
O     2.960000000    -5.917000000    -0.156000000
H     2.822000000    -6.738000000     0.316000000
H     2.122000000    -5.745000000    -0.586000000
O     1.200000000     4.669000000    -1.889000000
H     1.702000000     3.855000000    -1.844000000
H     1.187000000     4.992000000    -0.988000000
O     3.730000000     3.100000000     0.265000000
H     3.187000000     2.680000000    -0.403000000
H     3.170000000     3.783000000     0.634000000
O    -3.870000000     1.823000000     4.810000000
H    -3.720000000     1.655000000     5.741000000
H    -3.218000000     2.484000000     4.578000000
O     4.272000000    -0.087000000    -4.965000000
H     3.695000000     0.179000000    -4.249000000
H     4.432000000    -1.018000000    -4.811000000
O     4.958000000     2.108000000    -3.207000000
H     4.048000000     1.996000000    -2.932000000
H     5.380000000     1.279000000    -2.982000000
O     2.642000000     5.669000000    -4.346000000
H     2.402000000     5.124000000    -3.596000000
H     3.520000000     5.989000000    -4.138000000
O     2.860000000    -4.043000000    -5.441000000
H     3.233000000    -3.906000000    -4.570000000
H     2.878000000    -4.992000000    -5.563000000
O     3.318000000     1.138000000     2.392000000
H     4.125000000     0.667000000     2.600000000
H     3.607000000     1.894000000     1.882000000
O    -1.813000000     4.042000000    -3.058000000
H    -0.984000000     3.567000000    -3.119000000
H    -1.944000000     4.176000000    -2.120000000
O     0.592000000     1.893000000    -7.237000000
H     0.913000000     0.995000000    -7.328000000
H     0.972000000     2.200000000    -6.414000000
O     4.306000000    -1.771000000    -2.356000000
H     4.570000000    -1.585000000    -1.455000000
H     3.700000000    -1.064000000    -2.578000000
O    -4.163000000     0.816000000    -1.190000000
H    -4.867000000     0.228000000    -0.919000000
H    -3.753000000     1.094000000    -0.371000000
O    -1.540000000     0.399000000    -4.200000000
H    -1.439000000     0.338000000    -5.150000000
H    -2.049000000     1.199000000    -4.065000000
O     0.532000000    -1.429000000    -3.993000000
H     1.282000000    -1.043000000    -3.540000000
H    -0.062000000    -0.694000000    -4.142000000
O     6.173000000     0.441000000    -6.834000000
H     5.609000000    -0.046000000    -7.435000000
H     5.713000000     0.407000000    -5.995000000
O     4.051000000    -1.986000000     2.101000000
H     3.117000000    -1.976000000     1.890000000
H     4.261000000    -2.913000000     2.211000000
O    -5.079000000     3.747000000    -1.354000000
H    -4.221000000     3.938000000    -0.975000000
H    -5.261000000     2.845000000    -1.090000000
O    -2.085000000    -5.359000000     4.381000000
H    -1.858000000    -5.525000000     3.466000000
H    -1.265000000    -5.072000000     4.783000000
O    -0.013000000     0.904000000     4.874000000
H     0.260000000     0.267000000     5.535000000
H    -0.077000000     1.731000000     5.351000000
O    -4.724000000    -1.315000000     5.465000000
H    -4.799000000    -0.393000000     5.218000000
H    -4.368000000    -1.743000000     4.688000000
O    -4.752000000    -4.237000000     0.712000000
H    -5.524000000    -4.796000000     0.623000000
H    -4.750000000    -3.702000000    -0.082000000
O    -4.932000000    -4.808000000     5.238000000
H    -4.074000000    -5.233000000     5.239000000
H    -4.971000000    -4.348000000     4.400000000
O    -0.515000000    -5.751000000     1.638000000
H    -1.317000000    -5.808000000     1.119000000
H     0.168000000    -5.541000000     1.001000000
O    -1.032000000    -3.040000000    -2.315000000
H    -1.168000000    -2.354000000    -1.662000000
H    -0.543000000    -2.609000000    -3.016000000
O     6.290000000     1.502000000     0.811000000
H     6.897000000     2.121000000     1.218000000
H     5.533000000     2.035000000     0.568000000
O    -2.796000000     4.475000000     4.962000000
H    -2.067000000     4.914000000     4.524000000
H    -3.489000000     5.135000000     4.995000000
O     5.653000000    -1.062000000     0.108000000
H     5.934000000    -0.319000000     0.643000000
H     5.125000000    -1.597000000     0.700000000
