144
-2804.97242
O     0.183000000     5.271000000    -1.482000000
H     1.115000000     5.479000000    -1.420000000
H     0.160000000     4.350000000    -1.742000000
O     4.832000000     3.954000000    -4.548000000
H     4.897000000     3.535000000    -3.689000000
H     4.024000000     3.606000000    -4.924000000
O     2.984000000    -4.092000000    -2.426000000
H     3.809000000    -3.623000000    -2.551000000
H     3.219000000    -4.855000000    -1.898000000
O     1.658000000    -6.858000000     3.636000000
H     2.333000000    -6.275000000     3.287000000
H     1.636000000    -7.592000000     3.022000000
O    -3.755000000     2.093000000    -5.305000000
H    -2.853000000     2.259000000    -5.030000000
H    -3.670000000     1.561000000    -6.096000000
O     0.094000000     0.007000000    -6.617000000
H    -0.118000000    -0.833000000    -7.024000000
H    -0.412000000     0.648000000    -7.116000000
O     3.043000000     2.686000000     0.698000000
H     2.334000000     3.328000000     0.661000000
H     3.833000000     3.208000000     0.836000000
O    -0.671000000    -6.186000000     5.537000000
H    -0.854000000    -5.266000000     5.345000000
H     0.075000000    -6.404000000     4.978000000
O     6.161000000    -2.746000000     0.034000000
H     5.527000000    -2.359000000     0.638000000
H     6.044000000    -3.690000000     0.136000000
O    -1.057000000     5.273000000    -4.663000000
H    -0.288000000     4.826000000    -4.308000000
H    -1.405000000     4.668000000    -5.317000000
O     2.300000000    -2.674000000    -5.478000000
H     2.171000000    -1.839000000    -5.027000000
H     2.552000000    -3.284000000    -4.785000000
O    -1.052000000     2.164000000    -5.061000000
H    -0.682000000     2.233000000    -4.181000000
H    -0.545000000     1.468000000    -5.480000000
O    -2.062000000     5.278000000     0.509000000
H    -1.741000000     5.244000000    -0.392000000
H    -2.562000000     4.468000000     0.617000000
O     0.277000000    -4.407000000    -2.571000000
H     0.273000000    -5.364000000    -2.555000000
H     1.199000000    -4.170000000    -2.470000000
O     0.654000000     5.371000000     1.598000000
H    -0.211000000     4.974000000     1.501000000
H     0.559000000     6.247000000     1.222000000
O     1.021000000    -6.405000000     0.501000000
H     0.450000000    -5.717000000     0.842000000
H     0.681000000    -7.212000000     0.888000000
O    -1.298000000     5.194000000     4.949000000
H    -2.037000000     4.986000000     5.521000000
H    -1.528000000     4.797000000     4.108000000
O    -3.417000000    -1.197000000    -2.281000000
H    -3.604000000    -0.887000000    -3.168000000
H    -2.545000000    -1.586000000    -2.343000000
O    -3.409000000     2.670000000     1.241000000
H    -3.449000000     2.597000000     2.195000000
H    -3.380000000     1.765000000     0.932000000
O    -4.908000000     3.963000000    -3.470000000
H    -3.972000000     4.110000000    -3.333000000
H    -4.947000000     3.282000000    -4.141000000
O    -1.150000000     0.111000000     4.944000000
H    -1.646000000     0.398000000     5.711000000
H    -1.798000000    -0.321000000     4.387000000
O    -1.189000000    -5.169000000     1.841000000
H    -1.644000000    -4.526000000     1.297000000
H    -1.830000000    -5.412000000     2.510000000
O     4.766000000     0.308000000    -6.083000000
H     3.844000000     0.229000000    -5.838000000
H     4.771000000     0.201000000    -7.034000000
O     3.737000000    -1.968000000     2.073000000
H     4.049000000    -1.602000000     2.901000000
H     3.856000000    -1.260000000     1.439000000
O    -4.651000000    -3.715000000     4.887000000
H    -4.848000000    -2.791000000     4.733000000
H    -3.737000000    -3.720000000     5.173000000
O    -4.032000000    -0.768000000     3.922000000
H    -4.253000000     0.117000000     3.633000000
H    -4.151000000    -1.311000000     3.142000000
O    -3.935000000    -3.200000000     2.044000000
H    -3.838000000    -3.400000000     1.112000000
H    -4.501000000    -3.894000000     2.380000000
O     1.402000000     0.626000000     5.447000000
H     1.527000000     1.516000000     5.120000000
H     0.500000000     0.409000000     5.211000000
O    -3.587000000     2.704000000     4.363000000
H    -3.955000000     3.061000000     5.172000000
H    -2.996000000     2.010000000     4.655000000
O    -1.385000000    -3.452000000     5.080000000
H    -1.171000000    -2.810000000     4.403000000
H    -1.482000000    -2.935000000     5.879000000
O     2.100000000     6.653000000    -5.306000000
H     1.460000000     6.792000000    -6.004000000
H     2.117000000     5.704000000    -5.182000000
O     3.824000000    -0.185000000     0.146000000
H     2.955000000    -0.270000000    -0.247000000
H     3.856000000     0.717000000     0.465000000
O    -2.569000000     4.577000000    -2.487000000
H    -2.002000000     4.895000000    -3.191000000
H    -2.192000000     3.733000000    -2.239000000
O    -5.222000000    -0.206000000    -0.247000000
H    -5.586000000    -1.091000000    -0.237000000
H    -4.512000000    -0.246000000    -0.888000000
O    -2.198000000    -1.312000000    -5.272000000
H    -1.582000000    -1.125000000    -4.564000000
H    -1.644000000    -1.564000000    -6.011000000
O     2.916000000     5.729000000    -1.213000000
H     3.415000000     5.928000000    -2.005000000
H     3.146000000     6.430000000    -0.602000000
O     4.778000000    -0.070000000    -3.168000000
H     4.567000000     0.082000000    -4.089000000
H     4.407000000     0.684000000    -2.709000000
O     3.365000000    -4.983000000     2.650000000
H     4.098000000    -5.245000000     2.092000000
H     3.282000000    -4.039000000     2.510000000
O     1.945000000     3.099000000    -7.474000000
H     1.221000000     2.497000000    -7.652000000
H     1.965000000     3.679000000    -8.235000000
O    -3.992000000    -3.833000000    -0.463000000
H    -3.743000000    -4.726000000    -0.700000000
H    -3.730000000    -3.303000000    -1.215000000
O    -5.612000000     0.772000000     2.361000000
H    -5.346000000     0.631000000     1.453000000
H    -6.048000000    -0.043000000     2.612000000
O     1.351000000     3.218000000     4.424000000
H     1.378000000     3.943000000     3.799000000
H     0.698000000     3.484000000     5.071000000
O     3.534000000     2.090000000    -1.840000000
H     2.706000000     1.918000000    -2.289000000
H     3.281000000     2.283000000    -0.937000000
O    -0.816000000    -2.058000000    -2.967000000
H    -0.355000000    -2.889000000    -2.855000000
H    -0.197000000    -1.397000000    -2.660000000
O     2.383000000     0.144000000    -5.128000000
H     1.714000000     0.044000000    -5.805000000
H     1.959000000     0.669000000    -4.449000000
O     0.115000000     7.882000000    -2.759000000
H     0.000000000     7.023000000    -2.352000000
H    -0.383000000     7.829000000    -3.575000000
O     5.492000000    -2.758000000    -2.957000000
H     6.274000000    -2.617000000    -2.423000000
H     5.169000000    -1.877000000    -3.145000000
O     1.694000000     4.060000000    -4.807000000
H     1.819000000     3.728000000    -5.696000000
H     1.548000000     3.277000000    -4.277000000
