144
-2803.83982
O     0.819000000     5.406000000    -2.508000000
H     1.739000000     5.634000000    -2.643000000
H     0.825000000     4.461000000    -2.357000000
O     2.566000000     6.399000000    -5.382000000
H     2.811000000     6.092000000    -4.509000000
H     2.107000000     5.657000000    -5.777000000
O    -0.170000000    -4.641000000     2.788000000
H     0.365000000    -4.142000000     3.404000000
H    -0.417000000    -5.431000000     3.270000000
O    -3.479000000     2.088000000    -5.179000000
H    -2.917000000     2.252000000    -4.421000000
H    -3.308000000     1.175000000    -5.411000000
O     0.686000000     1.503000000    -7.241000000
H     0.129000000     0.790000000    -7.555000000
H     0.406000000     2.265000000    -7.747000000
O     4.491000000     1.785000000    -0.190000000
H     3.742000000     2.352000000    -0.008000000
H     5.018000000     1.821000000     0.608000000
O    -1.214000000    -5.683000000     6.286000000
H    -1.593000000    -4.925000000     5.841000000
H    -1.054000000    -6.316000000     5.587000000
O    -0.661000000     6.443000000    -4.692000000
H    -0.496000000     5.858000000    -5.431000000
H    -0.012000000     6.188000000    -4.035000000
O    -5.714000000     1.047000000     5.378000000
H    -5.546000000     1.951000000     5.113000000
H    -5.508000000     0.527000000     4.601000000
O     2.321000000    -2.285000000    -5.037000000
H     2.432000000    -1.417000000    -5.426000000
H     2.220000000    -2.116000000    -4.100000000
O    -3.655000000    -1.712000000    -3.302000000
H    -2.736000000    -1.979000000    -3.273000000
H    -3.796000000    -1.247000000    -2.478000000
O    -1.908000000    -4.640000000    -1.007000000
H    -1.496000000    -4.151000000    -1.720000000
H    -1.187000000    -4.851000000    -0.414000000
O     5.819000000     0.376000000    -5.817000000
H     4.899000000     0.401000000    -6.080000000
H     5.882000000     1.013000000    -5.106000000
O    -1.673000000     3.060000000    -3.481000000
H    -0.916000000     2.769000000    -2.970000000
H    -1.319000000     3.718000000    -4.079000000
O     0.757000000    -4.609000000    -2.555000000
H     0.625000000    -4.668000000    -1.609000000
H     1.502000000    -5.184000000    -2.728000000
O    -0.599000000     5.719000000    -0.046000000
H     0.134000000     5.614000000    -0.652000000
H    -0.763000000     6.662000000    -0.030000000
O     0.751000000    -5.473000000     0.054000000
H     1.185000000    -6.323000000    -0.001000000
H     0.498000000    -5.392000000     0.974000000
O    -0.684000000     2.729000000     3.544000000
H    -1.013000000     3.459000000     4.067000000
H    -0.929000000     1.948000000     4.041000000
O    -3.156000000    -0.758000000    -0.673000000
H    -2.491000000    -0.541000000    -0.019000000
H    -3.943000000    -0.302000000    -0.375000000
O    -2.065000000     3.959000000     1.555000000
H    -1.484000000     4.363000000     0.911000000
H    -1.484000000     3.439000000     2.110000000
O     1.680000000    -0.139000000     4.677000000
H     0.727000000    -0.089000000     4.759000000
H     2.011000000     0.343000000     5.435000000
O     5.743000000     3.821000000    -1.784000000
H     6.075000000     4.548000000    -1.256000000
H     5.346000000     3.225000000    -1.148000000
O     2.633000000     0.753000000    -5.749000000
H     2.233000000     0.798000000    -4.880000000
H     1.912000000     0.932000000    -6.354000000
O    -4.243000000     5.001000000     2.653000000
H    -4.661000000     4.401000000     3.271000000
H    -3.469000000     4.529000000     2.347000000
O     2.968000000    -3.931000000     1.583000000
H     2.366000000    -3.720000000     0.869000000
H     2.902000000    -3.186000000     2.180000000
O    -4.325000000    -5.250000000     5.486000000
H    -4.479000000    -5.538000000     4.587000000
H    -3.485000000    -4.793000000     5.450000000
O    -3.114000000    -1.231000000     5.134000000
H    -3.647000000    -1.070000000     4.355000000
H    -3.745000000    -1.480000000     5.809000000
O    -5.916000000    -3.306000000     2.162000000
H    -5.199000000    -3.114000000     1.558000000
H    -5.852000000    -4.248000000     2.320000000
O     1.107000000    -3.273000000     4.682000000
H     0.424000000    -2.634000000     4.887000000
H     1.854000000    -3.005000000     5.218000000
O     2.640000000    -1.134000000     2.543000000
H     1.975000000    -0.974000000     1.873000000
H     2.262000000    -0.776000000     3.346000000
O    -0.824000000     0.445000000     5.218000000
H    -0.963000000     0.969000000     6.007000000
H    -1.621000000    -0.078000000     5.133000000
O    -2.341000000    -3.755000000     4.499000000
H    -2.112000000    -3.992000000     3.601000000
H    -2.490000000    -2.810000000     4.468000000
O     3.875000000    -5.912000000    -0.242000000
H     3.333000000    -5.260000000     0.201000000
H     4.774000000    -5.641000000    -0.060000000
O     5.305000000    -1.552000000     0.274000000
H     5.259000000    -0.851000000    -0.377000000
H     4.519000000    -1.436000000     0.807000000
O    -3.963000000     5.007000000    -2.362000000
H    -3.909000000     5.696000000    -3.024000000
H    -3.383000000     4.318000000    -2.687000000
O    -5.151000000     0.916000000     0.599000000
H    -5.824000000     0.247000000     0.471000000
H    -5.351000000     1.585000000    -0.056000000
O     3.492000000     5.588000000    -2.567000000
H     4.359000000     5.201000000    -2.689000000
H     3.537000000     6.010000000    -1.709000000
O     5.989000000    -1.640000000    -3.668000000
H     6.092000000    -1.199000000    -4.511000000
H     5.492000000    -1.021000000    -3.133000000
O    -3.732000000    -3.082000000     0.481000000
H    -3.107000000    -3.767000000     0.244000000
H    -3.528000000    -2.357000000    -0.110000000
O     5.008000000    -0.237000000     3.621000000
H     5.290000000     0.520000000     3.108000000
H     4.261000000    -0.590000000     3.138000000
O    -5.039000000    -0.606000000     3.100000000
H    -5.201000000     0.168000000     2.560000000
H    -5.185000000    -1.345000000     2.509000000
O     1.985000000     2.692000000     2.464000000
H     1.707000000     3.163000000     1.679000000
H     1.177000000     2.552000000     2.959000000
O     4.539000000     0.337000000    -2.507000000
H     3.804000000     0.563000000    -3.077000000
H     4.436000000     0.907000000    -1.745000000
O    -1.164000000    -2.947000000    -3.518000000
H    -0.490000000    -3.600000000    -3.326000000
H    -0.701000000    -2.258000000    -3.993000000
O    -0.590000000    -0.695000000    -4.953000000
H    -0.660000000    -0.669000000    -5.907000000
H    -0.641000000     0.222000000    -4.683000000
O     4.206000000    -3.539000000    -3.214000000
H     4.007000000    -3.093000000    -4.037000000
H     4.999000000    -3.109000000    -2.894000000
O     2.146000000     3.746000000    -0.028000000
H     2.448000000     4.637000000    -0.208000000
H     1.786000000     3.443000000    -0.861000000
O     1.558000000     3.561000000    -5.059000000
H     1.510000000     2.815000000    -5.657000000
H     1.363000000     3.190000000    -4.198000000
