144
-2811.02187
O     3.363000000     4.580000000    -0.693000000
H     4.315000000     4.629000000    -0.607000000
H     3.188000000     4.871000000    -1.588000000
O     4.338000000     6.188000000    -4.700000000
H     4.433000000     6.782000000    -3.956000000
H     4.269000000     5.319000000    -4.305000000
O    -0.529000000    -5.904000000     1.721000000
H     0.185000000    -5.389000000     1.346000000
H    -0.309000000    -5.980000000     2.650000000
O    -2.414000000     3.215000000    -5.640000000
H    -1.478000000     3.346000000    -5.486000000
H    -2.569000000     2.300000000    -5.406000000
O     0.299000000     3.223000000    -5.119000000
H     0.790000000     2.929000000    -4.352000000
H     0.541000000     2.605000000    -5.809000000
O     1.438000000     6.353000000    -3.595000000
H     2.258000000     6.256000000    -4.079000000
H     0.945000000     7.008000000    -4.088000000
O    -3.670000000    -5.742000000    -0.613000000
H    -2.801000000    -5.344000000    -0.565000000
H    -4.275000000    -5.012000000    -0.482000000
O     3.022000000    -1.751000000    -4.148000000
H     3.916000000    -1.594000000    -3.843000000
H     2.548000000    -0.951000000    -3.923000000
O    -2.327000000    -1.949000000    -2.840000000
H    -1.688000000    -1.685000000    -3.503000000
H    -1.900000000    -2.663000000    -2.367000000
O     6.994000000     0.474000000    -4.099000000
H     6.057000000     0.282000000    -4.064000000
H     7.061000000     1.391000000    -3.832000000
O     0.485000000    -6.283000000    -2.140000000
H     0.455000000    -5.874000000    -3.005000000
H    -0.072000000    -7.057000000    -2.222000000
O     0.157000000     4.714000000    -1.701000000
H     0.661000000     3.914000000    -1.852000000
H     0.439000000     5.310000000    -2.395000000
O     1.161000000     0.278000000     4.491000000
H     0.576000000     0.614000000     5.171000000
H     0.629000000     0.278000000     3.696000000
O     0.697000000    -4.677000000    -4.206000000
H     0.740000000    -3.749000000    -3.976000000
H     1.524000000    -4.850000000    -4.657000000
O     1.857000000     6.970000000     0.460000000
H     1.967000000     6.127000000     0.021000000
H     2.184000000     7.613000000    -0.169000000
O    -1.351000000    -4.685000000    -0.513000000
H    -0.728000000    -5.151000000    -1.071000000
H    -0.960000000    -4.714000000     0.360000000
O    -0.308000000     1.180000000    -7.237000000
H    -0.796000000     1.587000000    -7.952000000
H    -0.184000000     0.273000000    -7.518000000
O     0.047000000     5.996000000     2.644000000
H     0.669000000     6.324000000     1.995000000
H    -0.630000000     5.557000000     2.128000000
O    -5.116000000    -3.367000000    -0.858000000
H    -4.687000000    -2.514000000    -0.794000000
H    -5.501000000    -3.377000000    -1.734000000
O    -3.857000000    -0.808000000     5.623000000
H    -4.656000000    -0.404000000     5.283000000
H    -3.980000000    -0.819000000     6.572000000
O     2.771000000    -1.912000000     4.455000000
H     3.626000000    -1.638000000     4.786000000
H     2.263000000    -1.103000000     4.404000000
O     3.172000000     1.555000000    -5.392000000
H     2.928000000     1.082000000    -4.597000000
H     2.848000000     1.005000000    -6.106000000
O     1.876000000    -4.502000000     0.614000000
H     2.348000000    -4.301000000    -0.195000000
H     2.367000000    -4.046000000     1.297000000
O    -2.840000000     2.599000000     5.261000000
H    -2.935000000     2.676000000     4.312000000
H    -3.732000000     2.468000000     5.582000000
O    -5.512000000    -0.354000000     2.537000000
H    -5.483000000    -0.613000000     1.616000000
H    -6.228000000    -0.870000000     2.908000000
O     0.879000000    -4.311000000     4.109000000
H     1.282000000    -3.558000000     4.541000000
H    -0.056000000    -4.223000000     4.297000000
O     3.449000000    -2.794000000     1.874000000
H     3.426000000    -1.974000000     1.379000000
H     3.017000000    -2.586000000     2.702000000
O    -0.268000000     1.951000000     6.397000000
H     0.041000000     2.677000000     6.939000000
H    -1.081000000     2.272000000     6.007000000
O    -4.259000000    -2.738000000     3.724000000
H    -4.767000000    -2.125000000     3.192000000
H    -4.160000000    -2.297000000     4.568000000
O    -2.714000000     4.560000000    -1.263000000
H    -2.800000000     5.127000000    -2.029000000
H    -1.829000000     4.727000000    -0.939000000
O     2.271000000    -2.333000000    -6.842000000
H     2.802000000    -2.887000000    -7.415000000
H     2.541000000    -2.577000000    -5.956000000
O     5.173000000    -3.666000000     0.162000000
H     4.706000000    -3.165000000    -0.506000000
H     4.669000000    -3.524000000     0.964000000
O    -1.386000000     7.301000000    -0.894000000
H    -1.744000000     7.385000000    -1.777000000
H    -0.547000000     6.856000000    -1.016000000
O    -4.126000000     2.758000000     0.058000000
H    -3.569000000     3.471000000    -0.254000000
H    -4.328000000     2.251000000    -0.728000000
O     5.246000000    -1.652000000    -2.714000000
H     5.567000000    -1.662000000    -1.812000000
H     5.766000000    -2.321000000    -3.160000000
O    -0.740000000     5.713000000    -6.467000000
H    -0.288000000     5.432000000    -5.671000000
H    -0.472000000     5.079000000    -7.132000000
O     1.050000000     4.505000000     4.888000000
H     0.400000000     4.417000000     5.586000000
H     0.569000000     4.901000000     4.162000000
O     2.436000000     0.132000000    -7.719000000
H     1.540000000     0.460000000    -7.636000000
H     2.384000000    -0.782000000    -7.441000000
O    -4.123000000    -0.708000000    -0.972000000
H    -3.258000000    -0.937000000    -1.310000000
H    -4.260000000     0.196000000    -1.255000000
O    -3.737000000     1.845000000     2.785000000
H    -4.096000000     2.114000000     1.940000000
H    -3.965000000     0.919000000     2.858000000
O     2.671000000    -0.088000000     1.851000000
H     2.934000000     0.755000000     1.482000000
H     1.852000000    -0.300000000     1.403000000
O    -1.290000000    -2.042000000     6.137000000
H    -2.130000000    -1.657000000     5.889000000
H    -1.490000000    -2.962000000     6.312000000
O     5.675000000     0.514000000    -0.429000000
H     5.149000000     1.270000000    -0.168000000
H     6.210000000     0.833000000    -1.155000000
O     0.129000000    -1.755000000    -4.626000000
H     0.618000000    -1.845000000    -5.443000000
H     0.575000000    -1.051000000    -4.156000000
O    -5.597000000    -5.100000000     3.678000000
H    -5.110000000    -4.278000000     3.731000000
H    -5.195000000    -5.571000000     2.948000000
O     2.931000000    -3.418000000    -1.769000000
H     2.991000000    -2.663000000    -2.354000000
H     2.944000000    -4.176000000    -2.353000000
O     3.465000000     2.317000000     0.735000000
H     3.411000000     2.919000000     1.478000000
H     3.435000000     2.884000000    -0.036000000
O     3.571000000     3.799000000    -3.672000000
H     2.893000000     3.270000000    -3.251000000
H     3.715000000     3.375000000    -4.518000000
