144
-2830.77835
O     4.960000000     3.176000000     0.170000000
H     5.883000000     3.362000000     0.344000000
H     4.964000000     2.701000000    -0.661000000
O     6.940000000     3.136000000    -2.422000000
H     6.268000000     3.815000000    -2.364000000
H     6.698000000     2.624000000    -3.193000000
O    -6.046000000    -0.657000000    -0.954000000
H    -5.313000000    -1.271000000    -1.006000000
H    -6.823000000    -1.199000000    -1.095000000
O    -0.091000000    -4.656000000     3.043000000
H     0.775000000    -4.888000000     2.707000000
H     0.082000000    -4.248000000     3.891000000
O    -2.700000000     2.867000000    -3.093000000
H    -1.827000000     2.715000000    -3.456000000
H    -3.195000000     2.081000000    -3.323000000
O    -0.040000000     2.176000000    -5.265000000
H     0.492000000     1.799000000    -4.564000000
H     0.279000000     1.751000000    -6.062000000
O     3.552000000     5.224000000    -2.793000000
H     2.851000000     5.263000000    -3.443000000
H     3.936000000     4.354000000    -2.908000000
O    -2.176000000    -3.942000000     1.023000000
H    -1.445000000    -4.103000000     1.618000000
H    -1.884000000    -3.212000000     0.477000000
O     4.969000000    -0.166000000    -0.473000000
H     4.646000000    -0.316000000     0.415000000
H     4.179000000    -0.139000000    -1.014000000
O    -3.737000000    -2.297000000    -1.811000000
H    -3.772000000    -3.223000000    -2.051000000
H    -2.808000000    -2.072000000    -1.860000000
O     1.303000000    -2.121000000    -6.471000000
H     1.734000000    -2.190000000    -5.619000000
H     1.565000000    -2.916000000    -6.936000000
O     1.849000000    -4.355000000    -4.591000000
H     2.392000000    -5.063000000    -4.937000000
H     2.475000000    -3.720000000    -4.243000000
O    -4.842000000     4.178000000     3.779000000
H    -4.419000000     4.704000000     3.101000000
H    -4.825000000     3.285000000     3.434000000
O     3.018000000    -0.070000000     6.004000000
H     2.306000000     0.088000000     6.625000000
H     2.605000000     0.003000000     5.144000000
O     0.677000000    -5.102000000    -0.530000000
H     0.315000000    -5.982000000    -0.636000000
H     1.143000000    -5.134000000     0.306000000
O     2.963000000     1.052000000    -5.690000000
H     2.642000000     0.835000000    -4.815000000
H     2.406000000     0.547000000    -6.282000000
O    -2.943000000     4.621000000    -1.014000000
H    -2.302000000     5.248000000    -1.350000000
H    -2.968000000     3.928000000    -1.674000000
O    -4.024000000     0.416000000    -3.952000000
H    -3.542000000     0.218000000    -4.755000000
H    -3.889000000    -0.352000000    -3.397000000
O    -4.757000000    -3.382000000     2.108000000
H    -3.817000000    -3.474000000     1.953000000
H    -5.083000000    -4.281000000     2.146000000
O    -4.093000000     5.228000000     1.493000000
H    -3.714000000     5.040000000     0.635000000
H    -4.792000000     5.856000000     1.314000000
O    -6.017000000    -1.656000000     4.586000000
H    -6.020000000    -1.215000000     3.736000000
H    -6.763000000    -2.255000000     4.547000000
O     5.676000000     2.126000000    -4.751000000
H     5.777000000     1.192000000    -4.937000000
H     5.150000000     2.458000000    -5.479000000
O     0.235000000     3.561000000     3.405000000
H     0.030000000     3.104000000     4.221000000
H    -0.478000000     3.324000000     2.812000000
O     2.355000000    -5.283000000     1.906000000
H     2.712000000    -6.149000000     1.708000000
H     3.077000000    -4.680000000     1.730000000
O    -2.537000000     3.010000000     6.277000000
H    -2.671000000     2.090000000     6.052000000
H    -3.412000000     3.397000000     6.234000000
O     3.559000000    -3.539000000     4.509000000
H     4.170000000    -2.976000000     4.035000000
H     2.706000000    -3.121000000     4.390000000
O     3.765000000    -0.753000000     2.042000000
H     3.238000000     0.035000000     2.172000000
H     4.486000000    -0.665000000     2.665000000
O    -5.243000000    -0.781000000     1.957000000
H    -4.966000000    -1.696000000     2.007000000
H    -5.461000000    -0.647000000     1.035000000
O    -0.548000000    -0.603000000     5.831000000
H    -1.417000000    -0.407000000     6.182000000
H     0.025000000     0.052000000     6.229000000
O    -2.050000000     3.195000000     1.628000000
H    -2.485000000     3.802000000     2.226000000
H    -1.625000000     3.759000000     0.982000000
O     1.009000000     0.635000000    -7.550000000
H     0.281000000     0.727000000    -8.165000000
H     1.046000000    -0.303000000    -7.362000000
O     5.563000000    -2.991000000    -4.220000000
H     5.553000000    -3.804000000    -3.714000000
H     6.268000000    -3.113000000    -4.855000000
O     2.960000000    -4.890000000    -1.873000000
H     2.080000000    -4.798000000    -1.509000000
H     3.205000000    -5.795000000    -1.681000000
O    -0.031000000     4.662000000     0.140000000
H    -0.191000000     5.399000000    -0.450000000
H     0.803000000     4.295000000    -0.156000000
O    -4.614000000     1.787000000     2.330000000
H    -3.825000000     2.022000000     1.840000000
H    -4.670000000     0.835000000     2.250000000
O     7.549000000    -0.138000000     0.551000000
H     6.697000000    -0.069000000     0.119000000
H     7.409000000    -0.769000000     1.257000000
O     1.611000000     4.957000000    -4.770000000
H     1.629000000     4.993000000    -5.726000000
H     0.889000000     4.363000000    -4.566000000
O     6.272000000    -0.419000000    -3.173000000
H     5.568000000    -0.430000000    -2.525000000
H     6.216000000    -1.272000000    -3.604000000
O    -1.121000000    -2.579000000    -1.291000000
H    -0.447000000    -3.252000000    -1.387000000
H    -0.636000000    -1.754000000    -1.285000000
O    -3.160000000     0.349000000     6.279000000
H    -3.189000000    -0.060000000     5.415000000
H    -3.929000000     0.005000000     6.734000000
O     1.723000000     0.967000000     3.762000000
H     2.238000000     1.633000000     3.306000000
H     1.199000000     0.556000000     3.074000000
O    -0.683000000    -3.347000000    -4.988000000
H     0.052000000    -3.787000000    -4.561000000
H    -0.285000000    -2.608000000    -5.448000000
O     3.097000000    -1.652000000    -4.529000000
H     4.013000000    -1.892000000    -4.387000000
H     2.899000000    -1.038000000    -3.822000000
O    -3.973000000    -3.380000000     4.953000000
H    -4.863000000    -3.633000000     5.198000000
H    -4.078000000    -2.897000000     4.134000000
O    -2.077000000     3.199000000    -6.975000000
H    -1.412000000     2.902000000    -6.354000000
H    -2.662000000     2.447000000    -7.077000000
O     0.665000000    -3.126000000     5.267000000
H     1.023000000    -3.383000000     6.117000000
H     0.212000000    -2.301000000     5.438000000
O     4.389000000    -3.777000000     0.420000000
H     4.244000000    -2.872000000     0.696000000
H     3.941000000    -3.844000000    -0.423000000
O     4.355000000     2.369000000    -2.506000000
H     3.890000000     1.532000000    -2.493000000
H     4.820000000     2.371000000    -3.342000000
