144
-2807.19835
O    -0.015000000    -0.905000000     4.876000000
H    -0.867000000    -1.306000000     5.046000000
H     0.561000000    -1.642000000     4.674000000
O     6.668000000     2.425000000    -1.263000000
H     7.544000000     2.642000000    -0.944000000
H     6.615000000     1.472000000    -1.190000000
O    -7.145000000     2.946000000    -3.393000000
H    -6.934000000     3.546000000    -4.108000000
H    -6.342000000     2.900000000    -2.874000000
O     1.115000000    -0.893000000    -4.618000000
H     1.846000000    -0.452000000    -5.050000000
H     1.482000000    -1.214000000    -3.794000000
O    -0.237000000     6.555000000     1.625000000
H    -0.199000000     7.203000000     0.922000000
H    -0.413000000     5.727000000     1.177000000
O    -3.914000000     3.822000000    -6.266000000
H    -4.045000000     3.167000000    -5.581000000
H    -3.682000000     3.312000000    -7.043000000
O     0.035000000    -4.219000000    -4.048000000
H    -0.473000000    -4.006000000    -4.830000000
H    -0.503000000    -4.856000000    -3.578000000
O    -8.237000000     0.237000000    -3.678000000
H    -7.601000000     0.013000000    -2.999000000
H    -8.127000000     1.179000000    -3.807000000
O    -4.895000000    -3.575000000    -4.599000000
H    -4.789000000    -4.185000000    -5.329000000
H    -4.093000000    -3.673000000    -4.086000000
O    -7.338000000    -0.559000000     0.311000000
H    -6.759000000    -0.358000000     1.046000000
H    -8.015000000     0.116000000     0.347000000
O     3.789000000    -3.938000000     1.651000000
H     4.110000000    -3.896000000     2.552000000
H     2.836000000    -3.892000000     1.734000000
O     7.227000000    -0.999000000     3.941000000
H     7.760000000    -1.784000000     4.065000000
H     6.329000000    -1.326000000     3.886000000
O     3.732000000    -1.582000000    -2.599000000
H     3.995000000    -2.502000000    -2.607000000
H     4.224000000    -1.198000000    -1.873000000
O    -4.320000000    -5.145000000    -1.306000000
H    -3.812000000    -4.659000000    -1.955000000
H    -5.155000000    -5.322000000    -1.740000000
O    -0.185000000     1.918000000     4.711000000
H    -0.215000000     0.969000000     4.591000000
H     0.574000000     2.201000000     4.201000000
O    -1.067000000     4.438000000    -0.532000000
H    -0.686000000     5.187000000    -0.990000000
H    -0.408000000     3.749000000    -0.611000000
O     3.854000000     0.710000000     5.899000000
H     4.652000000     1.097000000     6.260000000
H     4.165000000     0.112000000     5.219000000
O     5.570000000    -0.256000000    -0.869000000
H     5.131000000    -0.123000000    -0.029000000
H     6.488000000    -0.399000000    -0.638000000
O    -2.868000000    -3.161000000    -2.682000000
H    -2.775000000    -2.208000000    -2.702000000
H    -1.977000000    -3.491000000    -2.800000000
O    -2.245000000    -3.915000000    -6.126000000
H    -1.969000000    -3.007000000    -5.999000000
H    -2.863000000    -3.877000000    -6.856000000
O    -5.987000000     0.114000000     2.368000000
H    -6.360000000     0.874000000     2.816000000
H    -5.071000000     0.099000000     2.644000000
O     1.199000000     3.030000000    -0.914000000
H     1.257000000     2.441000000    -0.162000000
H     1.833000000     3.722000000    -0.725000000
O    -1.619000000    -1.135000000    -4.983000000
H    -0.766000000    -1.333000000    -4.596000000
H    -2.126000000    -0.756000000    -4.265000000
O    -1.084000000     2.447000000    -5.023000000
H    -0.466000000     2.962000000    -4.504000000
H    -1.602000000     1.971000000    -4.374000000
O     2.362000000    -4.455000000    -5.832000000
H     2.783000000    -3.597000000    -5.892000000
H     1.760000000    -4.375000000    -5.092000000
O    -1.311000000     3.911000000     6.500000000
H    -1.211000000     3.628000000     7.409000000
H    -1.117000000     3.129000000     5.983000000
O    -6.887000000    -2.770000000    -3.021000000
H    -6.417000000    -3.185000000    -3.744000000
H    -6.467000000    -1.916000000    -2.921000000
O     0.114000000     0.797000000    -6.852000000
H    -0.194000000     1.583000000    -6.401000000
H    -0.110000000     0.078000000    -6.262000000
O     2.319000000    -3.032000000     4.864000000
H     2.017000000    -3.077000000     5.772000000
H     1.924000000    -3.795000000     4.442000000
O    -6.843000000     4.431000000    -0.668000000
H    -5.930000000     4.155000000    -0.586000000
H    -6.795000000     5.374000000    -0.829000000
O     4.579000000    -4.601000000    -2.414000000
H     5.060000000    -4.444000000    -1.601000000
H     3.747000000    -4.980000000    -2.129000000
O    -3.798000000     2.538000000     1.800000000
H    -4.237000000     3.219000000     2.309000000
H    -3.786000000     2.877000000     0.905000000
O    -1.399000000    -5.827000000    -2.204000000
H    -1.410000000    -5.732000000    -1.252000000
H    -1.918000000    -6.614000000    -2.372000000
O    -5.884000000    -0.254000000    -1.968000000
H    -6.222000000    -0.433000000    -1.090000000
H    -5.112000000     0.293000000    -1.819000000
O     4.205000000    -1.263000000     4.011000000
H     3.861000000    -1.011000000     3.154000000
H     3.648000000    -1.991000000     4.288000000
O    -4.783000000    -0.852000000    -4.724000000
H    -4.826000000    -1.806000000    -4.779000000
H    -4.368000000    -0.680000000    -3.879000000
O    -1.575000000    -3.424000000     2.825000000
H    -2.250000000    -2.957000000     3.317000000
H    -2.050000000    -3.851000000     2.112000000
O     7.762000000    -1.142000000     0.348000000
H     7.604000000    -1.863000000     0.958000000
H     7.977000000    -0.397000000     0.909000000
O     3.154000000     3.060000000     2.779000000
H     2.878000000     3.086000000     3.696000000
H     3.227000000     3.980000000     2.526000000
O     7.845000000     1.022000000     2.607000000
H     7.028000000     1.305000000     2.196000000
H     7.592000000     0.279000000     3.155000000
O    -2.640000000     0.243000000     3.082000000
H    -3.033000000     1.049000000     2.746000000
H    -1.802000000     0.176000000     2.623000000
O     1.299000000    -4.214000000     2.586000000
H     0.651000000    -3.592000000     2.254000000
H     0.814000000    -5.034000000     2.687000000
O     5.293000000     1.562000000     1.314000000
H     4.977000000     2.364000000     0.897000000
H     5.069000000     1.668000000     2.238000000
O    -3.284000000     0.745000000    -6.653000000
H    -3.790000000    -0.063000000    -6.566000000
H    -2.419000000     0.525000000    -6.309000000
O     4.223000000     0.227000000    -4.554000000
H     4.106000000    -0.091000000    -3.659000000
H     4.258000000    -0.567000000    -5.087000000
O    -4.416000000     2.183000000    -4.146000000
H    -4.173000000     1.841000000    -3.286000000
H    -4.552000000     1.403000000    -4.684000000
O     5.900000000    -3.968000000    -0.142000000
H     5.275000000    -3.466000000     0.380000000
H     6.717000000    -3.924000000     0.355000000
O    -3.748000000     4.035000000    -0.732000000
H    -2.824000000     4.055000000    -0.481000000
H    -3.847000000     3.215000000    -1.217000000
