144
-2817.96075
O     6.364000000     1.902000000    -0.642000000
H     5.730000000     2.586000000    -0.856000000
H     6.705000000     1.617000000    -1.490000000
O    -1.249000000    -0.122000000     4.075000000
H    -0.390000000     0.266000000     4.238000000
H    -1.723000000     0.545000000     3.578000000
O    -3.579000000     2.379000000    -4.062000000
H    -3.239000000     2.410000000    -3.168000000
H    -4.261000000     3.051000000    -4.083000000
O     0.712000000    -0.154000000     6.693000000
H     1.177000000     0.366000000     6.038000000
H     0.887000000     0.292000000     7.522000000
O    -5.323000000    -0.133000000     2.266000000
H    -5.699000000     0.202000000     3.080000000
H    -5.809000000     0.316000000     1.575000000
O    -1.083000000     5.145000000    -1.181000000
H    -0.242000000     4.712000000    -1.324000000
H    -0.967000000     6.021000000    -1.550000000
O     1.397000000     5.027000000     3.099000000
H     0.691000000     5.532000000     2.696000000
H     1.422000000     4.210000000     2.600000000
O     0.115000000    -3.269000000    -5.258000000
H    -0.322000000    -4.060000000    -4.941000000
H     0.796000000    -3.095000000    -4.608000000
O     1.442000000    -3.367000000    -2.667000000
H     1.332000000    -2.450000000    -2.415000000
H     1.975000000    -3.745000000    -1.967000000
O    -2.819000000     1.366000000     2.168000000
H    -2.495000000     0.848000000     1.431000000
H    -3.741000000     1.123000000     2.245000000
O    -4.671000000    -2.050000000     4.195000000
H    -5.408000000    -2.657000000     4.262000000
H    -4.912000000    -1.456000000     3.485000000
O     5.332000000     4.763000000     0.977000000
H     4.704000000     5.462000000     1.154000000
H     4.962000000     3.993000000     1.408000000
O    -0.947000000     5.861000000     1.624000000
H    -1.854000000     5.821000000     1.927000000
H    -0.945000000     5.366000000     0.806000000
O     3.177000000     3.002000000    -2.972000000
H     3.017000000     2.059000000    -3.016000000
H     2.440000000     3.346000000    -2.469000000
O     3.868000000     7.080000000     2.284000000
H     3.741000000     7.990000000     2.551000000
H     4.344000000     6.680000000     3.012000000
O     3.265000000     1.715000000     5.602000000
H     3.880000000     1.006000000     5.792000000
H     3.526000000     2.423000000     6.191000000
O    -5.279000000    -5.461000000     1.974000000
H    -5.588000000    -5.634000000     2.863000000
H    -4.326000000    -5.441000000     2.051000000
O    -4.504000000     0.601000000    -1.769000000
H    -3.992000000     1.360000000    -1.488000000
H    -4.172000000     0.399000000    -2.644000000
O    -2.714000000    -4.886000000     2.287000000
H    -2.493000000    -4.333000000     3.037000000
H    -2.686000000    -4.293000000     1.536000000
O    -5.274000000    -4.456000000    -0.575000000
H    -5.220000000    -4.695000000     0.351000000
H    -5.962000000    -3.792000000    -0.611000000
O    -2.811000000     3.043000000    -1.378000000
H    -3.502000000     3.664000000    -1.148000000
H    -1.999000000     3.487000000    -1.135000000
O    -2.555000000    -7.689000000     2.540000000
H    -2.652000000    -6.750000000     2.381000000
H    -1.991000000    -7.995000000     1.829000000
O    -2.158000000    -2.632000000     3.865000000
H    -3.025000000    -2.459000000     4.233000000
H    -1.720000000    -1.781000000     3.872000000
O    -3.456000000    -4.416000000    -2.977000000
H    -3.853000000    -3.631000000    -3.354000000
H    -3.940000000    -4.564000000    -2.165000000
O     1.566000000     5.613000000    -4.916000000
H     1.298000000     5.890000000    -5.793000000
H     1.500000000     6.405000000    -4.384000000
O     2.124000000    -1.479000000     3.780000000
H     1.221000000    -1.795000000     3.812000000
H     2.049000000    -0.530000000     3.877000000
O     3.824000000     5.973000000    -2.884000000
H     3.695000000     5.081000000    -3.207000000
H     3.153000000     6.488000000    -3.332000000
O     2.656000000     0.411000000    -3.350000000
H     3.385000000    -0.153000000    -3.607000000
H     2.028000000     0.332000000    -4.069000000
O    -0.145000000     3.792000000    -3.895000000
H     0.457000000     4.381000000    -4.350000000
H     0.273000000     3.628000000    -3.050000000
O     3.180000000    -4.382000000    -0.572000000
H     3.137000000    -4.300000000     0.381000000
H     3.556000000    -5.249000000    -0.721000000
O     3.742000000     2.514000000     2.021000000
H     3.694000000     2.685000000     2.961000000
H     2.976000000     2.959000000     1.657000000
O     0.241000000     2.704000000    -6.303000000
H     0.072000000     3.105000000    -5.451000000
H    -0.323000000     3.184000000    -6.910000000
O    -1.464000000    -5.394000000    -4.669000000
H    -1.984000000    -4.947000000    -4.001000000
H    -1.548000000    -6.323000000    -4.456000000
O     2.565000000    -3.646000000     2.013000000
H     2.762000000    -2.714000000     2.115000000
H     2.040000000    -3.864000000     2.783000000
O     5.104000000    -2.043000000     2.976000000
H     4.232000000    -1.693000000     3.160000000
H     5.495000000    -1.408000000     2.376000000
O     0.657000000    -6.558000000     3.425000000
H     0.052000000    -7.265000000     3.651000000
H     1.208000000    -6.926000000     2.735000000
O    -4.299000000    -2.151000000    -3.887000000
H    -4.552000000    -1.693000000    -3.085000000
H    -4.257000000    -1.464000000    -4.552000000
O     5.650000000     0.413000000     1.639000000
H     5.962000000     0.597000000     0.753000000
H     5.019000000     1.110000000     1.821000000
O     1.214000000    -2.762000000     6.399000000
H     1.071000000    -2.988000000     5.480000000
H     0.907000000    -1.858000000     6.474000000
O    -0.096000000     3.898000000     5.297000000
H     0.072000000     4.494000000     4.568000000
H    -0.147000000     4.467000000     6.065000000
O     1.747000000     6.444000000     0.543000000
H     2.200000000     6.311000000     1.376000000
H     1.357000000     5.592000000     0.344000000
O     1.183000000     0.152000000    -5.745000000
H     0.973000000     1.084000000    -5.694000000
H     0.366000000    -0.262000000    -6.024000000
O     0.407000000    -3.774000000     4.036000000
H     0.397000000    -4.725000000     3.925000000
H    -0.514000000    -3.535000000     4.139000000
O     1.532000000    -7.847000000     0.636000000
H     0.839000000    -8.502000000     0.552000000
H     1.294000000    -7.166000000     0.008000000
O     3.134000000     5.840000000     5.046000000
H     2.484000000     5.584000000     4.392000000
H     2.771000000     6.630000000     5.448000000
O     3.369000000    -1.170000000     0.513000000
H     3.747000000    -0.340000000     0.807000000
H     2.435000000    -0.987000000     0.417000000
O    -1.856000000     6.085000000    -4.226000000
H    -2.705000000     6.280000000    -3.830000000
H    -1.786000000     5.132000000    -4.186000000
O     1.116000000     1.605000000     4.370000000
H     2.026000000     1.800000000     4.594000000
H     0.649000000     2.426000000     4.527000000
