144
-2812.70182
O     4.973000000    -5.301000000     2.896000000
H     4.550000000    -6.152000000     3.019000000
H     4.342000000    -4.791000000     2.389000000
O    -5.287000000     2.991000000     0.112000000
H    -5.313000000     2.164000000     0.593000000
H    -4.354000000     3.193000000     0.033000000
O    -2.835000000     0.398000000    -1.406000000
H    -2.345000000     0.730000000    -2.158000000
H    -2.240000000    -0.223000000    -0.987000000
O    -3.171000000     3.542000000    -3.503000000
H    -3.903000000     3.072000000    -3.903000000
H    -2.666000000     2.863000000    -3.055000000
O     1.495000000    -4.060000000    -4.494000000
H     0.814000000    -4.677000000    -4.761000000
H     1.291000000    -3.257000000    -4.972000000
O     1.786000000     5.289000000    -1.107000000
H     0.942000000     4.841000000    -1.056000000
H     2.403000000     4.687000000    -0.690000000
O    -1.667000000     6.150000000     3.171000000
H    -2.066000000     5.287000000     3.275000000
H    -0.785000000     5.969000000     2.847000000
O    -4.991000000     3.822000000     3.935000000
H    -5.198000000     2.888000000     3.896000000
H    -4.051000000     3.852000000     4.113000000
O     5.989000000    -0.124000000     0.660000000
H     6.486000000    -0.938000000     0.584000000
H     5.100000000    -0.361000000     0.397000000
O    -1.377000000    -4.237000000     3.420000000
H    -0.712000000    -4.751000000     2.963000000
H    -2.045000000    -4.065000000     2.756000000
O    -1.409000000    -1.289000000    -4.654000000
H    -1.223000000    -0.444000000    -4.246000000
H    -0.678000000    -1.432000000    -5.255000000
O    -1.849000000    -6.599000000     0.371000000
H    -1.344000000    -6.199000000    -0.337000000
H    -1.382000000    -6.349000000     1.169000000
O    -0.255000000     8.423000000     0.637000000
H     0.329000000     8.434000000    -0.121000000
H     0.218000000     8.913000000     1.310000000
O    -3.986000000     0.556000000     1.613000000
H    -3.060000000     0.314000000     1.647000000
H    -4.438000000    -0.164000000     2.052000000
O     3.180000000     1.296000000    -3.999000000
H     2.826000000     0.589000000    -4.538000000
H     4.082000000     1.030000000    -3.819000000
O     2.882000000     0.972000000    -0.005000000
H     2.911000000     0.775000000    -0.941000000
H     2.294000000     0.312000000     0.361000000
O    -3.019000000    -1.061000000     6.556000000
H    -2.503000000    -1.355000000     5.806000000
H    -3.104000000    -0.115000000     6.432000000
O     0.821000000    -1.828000000    -6.113000000
H     1.496000000    -1.256000000    -6.477000000
H     0.399000000    -2.218000000    -6.878000000
O    -4.848000000    -2.305000000    -0.396000000
H    -5.652000000    -2.331000000     0.123000000
H    -4.803000000    -1.407000000    -0.723000000
O     0.925000000    -5.685000000     1.965000000
H     1.158000000    -6.241000000     1.221000000
H     1.730000000    -5.624000000     2.479000000
O     3.785000000     4.107000000     0.078000000
H     4.358000000     3.604000000    -0.501000000
H     4.356000000     4.777000000     0.455000000
O    -0.457000000     1.204000000     4.395000000
H    -0.864000000     0.418000000     4.760000000
H     0.438000000     0.935000000     4.187000000
O    -2.844000000     4.205000000     0.454000000
H    -1.975000000     3.852000000     0.259000000
H    -2.773000000     5.139000000     0.257000000
O     4.043000000    -1.897000000    -0.519000000
H     3.939000000    -2.378000000    -1.340000000
H     3.494000000    -2.369000000     0.106000000
O    -1.120000000     5.597000000    -2.910000000
H    -2.037000000     5.335000000    -2.994000000
H    -0.681000000     4.822000000    -2.561000000
O     2.634000000     2.850000000     2.266000000
H     2.599000000     2.535000000     1.363000000
H     2.820000000     3.786000000     2.186000000
O     3.697000000     5.668000000    -3.122000000
H     4.023000000     4.798000000    -2.893000000
H     2.746000000     5.565000000    -3.160000000
O     1.082000000     6.851000000    -4.083000000
H     0.170000000     6.685000000    -3.844000000
H     1.464000000     5.980000000    -4.192000000
O     3.613000000    -3.479000000    -2.705000000
H     4.078000000    -4.162000000    -3.188000000
H     2.815000000    -3.328000000    -3.213000000
O    -1.877000000     6.550000000    -0.451000000
H    -1.304000000     7.099000000     0.084000000
H    -1.451000000     6.522000000    -1.307000000
O     0.408000000     4.644000000     2.130000000
H     0.502000000     3.748000000     2.452000000
H     0.006000000     4.547000000     1.266000000
O    -1.192000000    -1.803000000     4.535000000
H    -0.467000000    -2.126000000     5.071000000
H    -1.297000000    -2.464000000     3.851000000
O    -3.173000000    -3.578000000    -4.346000000
H    -2.537000000    -2.909000000    -4.091000000
H    -3.341000000    -4.068000000    -3.541000000
O     2.253000000    -3.589000000     3.785000000
H     1.504000000    -3.382000000     4.345000000
H     3.017000000    -3.336000000     4.303000000
O     2.323000000     0.688000000     4.270000000
H     2.285000000     1.443000000     3.683000000
H     3.131000000     0.236000000     4.028000000
O     2.622000000     0.088000000    -6.554000000
H     1.889000000     0.540000000    -6.971000000
H     3.354000000     0.700000000    -6.628000000
O    -3.556000000    -3.918000000     1.886000000
H    -4.441000000    -4.250000000     1.731000000
H    -3.293000000    -3.539000000     1.047000000
O    -2.465000000     3.302000000     4.655000000
H    -2.212000000     3.687000000     5.493000000
H    -1.762000000     2.684000000     4.453000000
O     1.442000000     7.799000000    -1.570000000
H     1.585000000     6.904000000    -1.263000000
H     1.218000000     7.702000000    -2.496000000
O     1.870000000     6.396000000     3.996000000
H     1.560000000     5.820000000     3.297000000
H     1.357000000     6.139000000     4.763000000
O     0.209000000    -6.074000000    -1.916000000
H     0.662000000    -6.749000000    -1.410000000
H     0.763000000    -5.937000000    -2.684000000
O     1.836000000     3.933000000    -4.042000000
H     2.322000000     3.115000000    -4.153000000
H     1.166000000     3.726000000    -3.391000000
O    -1.283000000     1.358000000    -3.875000000
H    -1.329000000     1.661000000    -4.781000000
H    -0.769000000     2.028000000    -3.424000000
O     4.747000000    -0.826000000     3.614000000
H     4.967000000    -1.614000000     4.110000000
H     5.328000000    -0.850000000     2.854000000
O     3.063000000    -3.743000000     1.246000000
H     2.499000000    -3.593000000     2.004000000
H     2.623000000    -4.435000000     0.752000000
O    -4.403000000    -4.280000000    -1.921000000
H    -4.820000000    -4.993000000    -1.437000000
H    -4.489000000    -3.518000000    -1.349000000
O    -4.624000000     6.402000000    -1.659000000
H    -3.697000000     6.173000000    -1.587000000
H    -4.829000000     6.836000000    -0.831000000
O     0.563000000    -3.116000000     5.940000000
H     0.363000000    -4.007000000     6.225000000
H     0.804000000    -2.656000000     6.744000000
