144
-2806.95170
O    -1.762000000     2.017000000    -6.022000000
H    -2.498000000     1.784000000    -5.456000000
H    -1.009000000     2.058000000    -5.432000000
O    -2.063000000     7.104000000     1.151000000
H    -1.286000000     6.797000000     0.684000000
H    -1.853000000     6.973000000     2.076000000
O    -0.202000000     5.896000000    -5.261000000
H    -0.356000000     5.848000000    -4.317000000
H    -1.077000000     5.969000000    -5.642000000
O    -4.884000000     1.856000000     1.499000000
H    -5.491000000     1.634000000     0.793000000
H    -5.022000000     2.792000000     1.647000000
O    -1.380000000    -2.975000000    -3.130000000
H    -1.693000000    -2.162000000    -3.527000000
H    -0.427000000    -2.886000000    -3.120000000
O    -5.487000000     0.510000000    -3.273000000
H    -4.913000000    -0.235000000    -3.097000000
H    -5.285000000     0.760000000    -4.175000000
O     3.706000000     4.511000000     1.082000000
H     3.896000000     3.833000000     1.731000000
H     2.870000000     4.247000000     0.698000000
O    -3.901000000     4.269000000    -3.094000000
H    -3.374000000     3.495000000    -2.896000000
H    -4.743000000     4.101000000    -2.670000000
O     1.686000000    -5.556000000     0.891000000
H     2.163000000    -6.095000000     1.522000000
H     2.368000000    -5.083000000     0.415000000
O    -2.692000000    -4.181000000     2.737000000
H    -1.758000000    -4.280000000     2.551000000
H    -3.054000000    -3.792000000     1.941000000
O     3.835000000    -4.309000000    -1.990000000
H     2.939000000    -4.312000000    -2.326000000
H     4.162000000    -5.190000000    -2.171000000
O    -1.440000000    -7.424000000     0.689000000
H    -1.179000000    -6.663000000     0.170000000
H    -1.648000000    -8.097000000     0.041000000
O    -6.303000000     1.309000000    -0.869000000
H    -6.528000000     2.230000000    -0.998000000
H    -5.870000000     1.051000000    -1.682000000
O    -4.078000000    -0.785000000     2.009000000
H    -4.433000000     0.042000000     1.682000000
H    -3.855000000    -0.605000000     2.923000000
O    -2.838000000    -4.132000000     5.543000000
H    -1.916000000    -4.173000000     5.289000000
H    -3.299000000    -4.594000000     4.843000000
O     3.628000000     2.604000000    -1.960000000
H     2.840000000     2.931000000    -1.527000000
H     3.581000000     2.963000000    -2.846000000
O     3.692000000     0.523000000     4.637000000
H     4.577000000     0.564000000     5.000000000
H     3.689000000     1.179000000     3.940000000
O    -0.597000000    -1.078000000     6.778000000
H    -0.241000000    -1.280000000     5.913000000
H    -0.859000000    -1.928000000     7.133000000
O     4.587000000    -0.217000000     0.683000000
H     4.561000000     0.033000000     1.607000000
H     4.433000000    -1.162000000     0.686000000
O     0.511000000    -0.477000000    -3.122000000
H     1.230000000    -0.931000000    -3.562000000
H     0.738000000    -0.513000000    -2.193000000
O    -1.471000000     1.189000000     3.994000000
H    -1.539000000     0.664000000     4.791000000
H    -2.297000000     1.670000000     3.952000000
O    -4.066000000    -3.082000000     0.706000000
H    -4.086000000    -2.188000000     1.050000000
H    -4.959000000    -3.240000000     0.399000000
O     2.954000000     3.272000000    -4.562000000
H     2.109000000     2.824000000    -4.535000000
H     3.520000000     2.686000000    -5.065000000
O     0.433000000     6.556000000     0.144000000
H     0.883000000     5.758000000     0.421000000
H     0.158000000     6.377000000    -0.755000000
O     3.943000000     0.008000000    -2.534000000
H     3.787000000     0.899000000    -2.221000000
H     4.205000000    -0.478000000    -1.751000000
O     2.590000000    -1.056000000    -4.775000000
H     3.030000000    -1.717000000    -5.310000000
H     3.282000000    -0.700000000    -4.218000000
O    -0.037000000    -4.909000000     3.453000000
H     0.588000000    -4.770000000     2.741000000
H     0.244000000    -5.727000000     3.863000000
O     2.184000000     5.597000000    -2.853000000
H     1.755000000     5.027000000    -2.216000000
H     2.166000000     5.099000000    -3.671000000
O     5.720000000     1.957000000    -0.391000000
H     5.296000000     1.296000000     0.156000000
H     5.005000000     2.346000000    -0.894000000
O     5.377000000     5.825000000    -0.857000000
H     4.905000000     5.086000000    -0.474000000
H     5.144000000     6.571000000    -0.305000000
O    -2.080000000    -5.465000000    -4.259000000
H    -1.859000000    -4.705000000    -3.721000000
H    -2.868000000    -5.202000000    -4.734000000
O     1.402000000    -4.672000000    -3.175000000
H     1.252000000    -5.400000000    -2.572000000
H     1.326000000    -5.063000000    -4.045000000
O    -1.192000000     5.733000000    -2.100000000
H    -0.716000000     4.911000000    -1.986000000
H    -2.114000000     5.477000000    -2.109000000
O     3.014000000     6.343000000     3.064000000
H     3.747000000     6.065000000     3.613000000
H     3.113000000     5.835000000     2.258000000
O    -1.029000000    -5.484000000    -1.411000000
H    -0.332000000    -6.070000000    -1.707000000
H    -0.742000000    -4.613000000    -1.688000000
O     5.194000000    -2.531000000     2.924000000
H     4.847000000    -2.928000000     2.125000000
H     4.425000000    -2.396000000     3.478000000
O     2.794000000     1.847000000     2.101000000
H     2.015000000     2.356000000     2.324000000
H     2.539000000     1.345000000     1.327000000
O    -4.061000000    -6.247000000     3.604000000
H    -3.621000000    -5.483000000     3.231000000
H    -4.961000000    -6.185000000     3.285000000
O     2.782000000     8.334000000    -0.380000000
H     3.517000000     8.360000000     0.233000000
H     2.191000000     7.674000000    -0.017000000
O     0.047000000     2.928000000     2.412000000
H    -0.608000000     3.306000000     1.825000000
H    -0.410000000     2.210000000     2.850000000
O     0.506000000     2.246000000    -4.213000000
H     0.384000000     1.379000000    -3.827000000
H     0.245000000     2.855000000    -3.523000000
O    -2.165000000     2.196000000    -2.990000000
H    -2.460000000     1.437000000    -2.486000000
H    -1.392000000     2.510000000    -2.521000000
O     3.237000000    -1.968000000     4.429000000
H     3.517000000    -1.069000000     4.600000000
H     2.281000000    -1.921000000     4.403000000
O    -3.852000000    -5.300000000    -1.285000000
H    -3.802000000    -4.753000000    -0.502000000
H    -2.940000000    -5.431000000    -1.544000000
O     4.700000000    -2.835000000     0.110000000
H     4.330000000    -3.359000000    -0.601000000
H     5.529000000    -2.509000000    -0.240000000
O    -2.600000000     3.465000000     1.688000000
H    -2.808000000     3.864000000     2.533000000
H    -3.337000000     2.880000000     1.511000000
O    -4.060000000    -1.377000000    -1.874000000
H    -3.565000000    -1.337000000    -1.055000000
H    -3.749000000    -2.174000000    -2.303000000
O     0.299000000    -2.015000000     4.200000000
H    -0.175000000    -1.565000000     3.500000000
H    -0.008000000    -2.921000000     4.152000000
