144
-2824.94961
O     1.523000000     8.098000000     2.049000000
H     2.476000000     8.093000000     2.143000000
H     1.299000000     7.192000000     1.836000000
O    -4.406000000     2.064000000     2.526000000
H    -4.656000000     2.879000000     2.961000000
H    -3.802000000     2.336000000     1.835000000
O    -0.525000000    -2.017000000    -3.870000000
H    -1.224000000    -2.665000000    -3.958000000
H     0.283000000    -2.518000000    -3.985000000
O    -0.164000000     0.198000000     4.440000000
H     0.412000000     0.720000000     3.882000000
H    -0.921000000     0.002000000     3.887000000
O    -4.385000000    -2.028000000    -0.882000000
H    -4.292000000    -1.119000000    -1.168000000
H    -4.217000000    -2.001000000     0.060000000
O     2.576000000     3.059000000     1.831000000
H     2.883000000     3.811000000     2.337000000
H     2.115000000     3.444000000     1.085000000
O    -2.085000000     7.156000000     1.321000000
H    -2.198000000     7.663000000     0.517000000
H    -2.753000000     6.473000000     1.270000000
O    -3.339000000     6.097000000    -3.282000000
H    -2.421000000     5.897000000    -3.098000000
H    -3.354000000     7.043000000    -3.428000000
O    -5.043000000     4.753000000    -1.498000000
H    -4.463000000     5.023000000    -2.210000000
H    -5.907000000     5.075000000    -1.757000000
O     3.320000000    -4.563000000    -0.198000000
H     2.670000000    -5.176000000     0.144000000
H     3.786000000    -5.059000000    -0.871000000
O     3.397000000    -1.128000000    -5.785000000
H     3.158000000    -0.276000000    -5.421000000
H     4.337000000    -1.203000000    -5.621000000
O    -3.436000000    -5.575000000     1.261000000
H    -3.965000000    -5.086000000     1.891000000
H    -3.681000000    -6.489000000     1.400000000
O    -6.172000000     0.629000000     0.846000000
H    -6.125000000     1.581000000     0.930000000
H    -5.295000000     0.324000000     1.078000000
O    -3.852000000    -2.140000000     1.913000000
H    -4.517000000    -2.568000000     2.452000000
H    -3.020000000    -2.478000000     2.246000000
O    -1.579000000    -0.782000000     6.707000000
H    -1.269000000    -0.693000000     5.806000000
H    -2.480000000    -1.093000000     6.621000000
O     6.402000000     0.602000000     0.015000000
H     6.489000000     0.414000000    -0.920000000
H     6.242000000    -0.252000000     0.417000000
O    -1.451000000     0.465000000    -3.050000000
H    -1.103000000     0.327000000    -2.169000000
H    -1.408000000    -0.399000000    -3.462000000
O    -2.157000000     2.704000000     5.872000000
H    -1.653000000     3.161000000     5.199000000
H    -2.044000000     1.776000000     5.667000000
O    -4.258000000    -4.917000000    -1.241000000
H    -3.984000000    -5.309000000    -0.412000000
H    -4.462000000    -4.008000000    -1.021000000
O     0.815000000     6.218000000     0.287000000
H     0.727000000     5.286000000     0.084000000
H    -0.073000000     6.565000000     0.204000000
O     5.231000000     2.602000000    -2.963000000
H     5.956000000     2.650000000    -3.585000000
H     5.546000000     2.020000000    -2.272000000
O     3.000000000     1.157000000    -4.031000000
H     3.005000000     0.410000000    -3.433000000
H     3.825000000     1.610000000    -3.857000000
O    -1.731000000    -4.934000000     3.288000000
H    -2.181000000    -5.244000000     2.502000000
H    -0.809000000    -5.143000000     3.134000000
O     3.358000000     4.336000000    -1.720000000
H     2.530000000     4.044000000    -1.338000000
H     3.756000000     3.539000000    -2.068000000
O     3.056000000     0.561000000     2.852000000
H     3.293000000     0.130000000     2.030000000
H     2.597000000     1.356000000     2.582000000
O     1.797000000     6.283000000    -2.872000000
H     2.186000000     5.497000000    -2.486000000
H     2.537000000     6.876000000    -3.004000000
O    -4.107000000     4.571000000     3.680000000
H    -4.330000000     5.448000000     3.992000000
H    -3.327000000     4.699000000     3.141000000
O     1.038000000    -4.539000000    -4.559000000
H     0.835000000    -4.918000000    -3.704000000
H     1.827000000    -5.000000000    -4.844000000
O    -0.751000000     5.221000000    -3.016000000
H    -0.793000000     4.297000000    -2.768000000
H     0.147000000     5.483000000    -2.811000000
O     1.438000000    -1.893000000     5.014000000
H     2.361000000    -1.641000000     5.005000000
H     0.963000000    -1.062000000     5.025000000
O     3.346000000     5.408000000     2.919000000
H     3.421000000     5.792000000     2.045000000
H     3.196000000     6.157000000     3.497000000
O     1.576000000    -6.159000000     1.237000000
H     1.778000000    -7.060000000     1.489000000
H     1.373000000    -5.720000000     2.063000000
O     0.283000000    -5.713000000    -1.932000000
H     0.739000000    -6.550000000    -1.842000000
H     0.169000000    -5.404000000    -1.033000000
O     5.279000000    -5.283000000     1.763000000
H     4.780000000    -4.752000000     1.142000000
H     5.405000000    -6.120000000     1.315000000
O    -6.867000000    -2.275000000     1.618000000
H    -6.081000000    -2.170000000     1.082000000
H    -7.414000000    -1.523000000     1.393000000
O     3.400000000     6.615000000    -0.305000000
H     3.482000000     5.687000000    -0.527000000
H     2.460000000     6.748000000    -0.180000000
O     0.144000000     2.898000000     3.520000000
H     0.864000000     2.699000000     2.922000000
H    -0.448000000     3.450000000     3.009000000
O     3.694000000    -1.356000000    -3.102000000
H     4.511000000    -1.744000000    -2.788000000
H     3.577000000    -1.721000000    -3.979000000
O     0.472000000     2.245000000    -4.253000000
H     0.176000000     1.506000000    -3.722000000
H     1.365000000     2.014000000    -4.509000000
O    -3.290000000     2.901000000     0.170000000
H    -3.360000000     2.262000000    -0.539000000
H    -2.385000000     3.210000000     0.125000000
O     3.118000000    -2.147000000     1.302000000
H     2.888000000    -3.048000000     1.076000000
H     2.283000000    -1.678000000     1.298000000
O    -2.434000000    -4.294000000    -3.235000000
H    -3.171000000    -4.536000000    -2.675000000
H    -1.681000000    -4.741000000    -2.848000000
O     5.732000000    -2.058000000     0.344000000
H     4.838000000    -2.062000000     0.685000000
H     5.641000000    -2.320000000    -0.572000000
O    -1.832000000     4.713000000     2.162000000
H    -1.555000000     5.608000000     1.967000000
H    -1.519000000     4.197000000     1.419000000
O    -3.842000000     0.397000000    -1.521000000
H    -3.364000000     0.530000000    -2.340000000
H    -4.761000000     0.527000000    -1.757000000
O     1.034000000    -4.580000000     3.566000000
H     0.796000000    -3.654000000     3.599000000
H     1.982000000    -4.589000000     3.697000000
O    -4.400000000     5.723000000     0.985000000
H    -4.378000000     5.028000000     1.642000000
H    -4.741000000     5.298000000     0.198000000
O    -2.755000000     0.177000000     3.739000000
H    -3.184000000     0.195000000     2.884000000
H    -3.449000000     0.396000000     4.361000000
