144
-2826.82332
O    -0.742000000    -1.916000000    -2.775000000
H     0.128000000    -1.643000000    -2.484000000
H    -0.585000000    -2.378000000    -3.598000000
O     1.767000000     5.198000000    -1.584000000
H     2.712000000     5.244000000    -1.726000000
H     1.534000000     4.298000000    -1.809000000
O    -1.935000000     7.235000000    -3.653000000
H    -1.417000000     6.676000000    -3.073000000
H    -2.362000000     7.858000000    -3.065000000
O     0.489000000     7.562000000    -1.181000000
H     1.027000000     6.791000000    -1.365000000
H     0.607000000     8.125000000    -1.946000000
O    -3.879000000     2.435000000    -2.163000000
H    -3.665000000     3.038000000    -2.874000000
H    -3.258000000     1.713000000    -2.265000000
O     6.402000000     2.828000000    -1.602000000
H     6.659000000     2.717000000    -2.517000000
H     7.015000000     3.478000000    -1.259000000
O     3.656000000    -2.383000000    -2.323000000
H     3.693000000    -1.695000000    -2.987000000
H     4.563000000    -2.674000000    -2.229000000
O     1.557000000    -0.606000000    -5.787000000
H     1.606000000    -1.555000000    -5.903000000
H     0.619000000    -0.413000000    -5.787000000
O    -2.068000000     4.144000000     1.492000000
H    -1.403000000     4.297000000     2.164000000
H    -1.745000000     4.617000000     0.724000000
O    -3.495000000    -7.432000000     2.284000000
H    -2.913000000    -6.847000000     1.799000000
H    -3.308000000    -7.248000000     3.204000000
O     2.462000000     3.513000000    -4.945000000
H     2.535000000     2.630000000    -5.306000000
H     2.490000000     3.388000000    -3.997000000
O    -5.128000000     1.579000000     2.443000000
H    -4.460000000     1.090000000     2.923000000
H    -4.673000000     1.908000000     1.668000000
O     3.337000000    -4.126000000     2.400000000
H     4.054000000    -4.196000000     3.031000000
H     2.590000000    -4.533000000     2.839000000
O    -0.586000000     0.374000000     5.001000000
H     0.027000000     1.053000000     4.719000000
H    -0.106000000    -0.446000000     4.886000000
O    -0.156000000     4.592000000     3.411000000
H     0.302000000     3.801000000     3.694000000
H     0.531000000     5.256000000     3.344000000
O    -2.493000000     4.005000000    -5.056000000
H    -3.139000000     4.711000000    -5.040000000
H    -2.731000000     3.481000000    -5.822000000
O     2.546000000    -6.593000000    -0.053000000
H     2.444000000    -7.416000000     0.426000000
H     3.474000000    -6.377000000     0.036000000
O     2.492000000     0.330000000     2.223000000
H     3.303000000    -0.054000000     1.890000000
H     1.891000000     0.304000000     1.478000000
O     0.380000000    -5.779000000    -3.102000000
H    -0.435000000    -6.019000000    -2.662000000
H     0.965000000    -5.510000000    -2.394000000
O     4.689000000     0.955000000    -0.859000000
H     5.277000000     1.686000000    -1.050000000
H     3.845000000     1.226000000    -1.221000000
O    -4.739000000     3.430000000     0.270000000
H    -4.495000000     3.064000000    -0.580000000
H    -3.950000000     3.879000000     0.573000000
O     3.652000000    -0.294000000    -4.188000000
H     2.945000000    -0.504000000    -4.797000000
H     3.253000000     0.302000000    -3.554000000
O    -1.077000000     4.509000000    -2.824000000
H    -1.560000000     4.375000000    -3.639000000
H    -0.524000000     3.731000000    -2.743000000
O    -0.796000000    -6.596000000     1.487000000
H    -0.072000000    -7.221000000     1.437000000
H    -0.618000000    -5.967000000     0.788000000
O     1.121000000     2.314000000     3.888000000
H     1.807000000     2.230000000     4.550000000
H     1.458000000     1.833000000     3.132000000
O    -4.318000000    -1.780000000     2.392000000
H    -4.172000000    -1.163000000     3.110000000
H    -4.517000000    -1.225000000     1.638000000
O    -4.552000000    -1.022000000    -0.324000000
H    -4.497000000    -0.320000000    -0.972000000
H    -4.283000000    -1.808000000    -0.799000000
O     5.320000000    -0.286000000     1.652000000
H     5.128000000     0.263000000     0.892000000
H     5.147000000    -1.178000000     1.352000000
O    -5.752000000    -3.539000000     4.497000000
H    -5.691000000    -2.612000000     4.727000000
H    -5.429000000    -3.584000000     3.597000000
O    -0.113000000    -6.624000000     5.418000000
H    -0.570000000    -7.229000000     4.833000000
H    -0.635000000    -5.822000000     5.388000000
O    -3.779000000    -3.380000000    -1.967000000
H    -4.214000000    -4.192000000    -2.231000000
H    -3.341000000    -3.075000000    -2.761000000
O    -5.216000000    -0.955000000     5.460000000
H    -4.482000000    -0.342000000     5.421000000
H    -5.785000000    -0.604000000     6.145000000
O     1.500000000     6.482000000    -4.974000000
H     1.713000000     5.640000000    -4.573000000
H     0.912000000     6.261000000    -5.697000000
O     0.988000000    -5.006000000     3.404000000
H     0.824000000    -5.779000000     3.944000000
H     0.415000000    -5.118000000     2.645000000
O     6.239000000    -0.869000000    -2.476000000
H     6.482000000    -1.652000000    -1.982000000
H     5.563000000    -0.450000000    -1.943000000
O     6.366000000     1.782000000    -4.103000000
H     5.953000000     1.055000000    -3.638000000
H     6.514000000     1.447000000    -4.987000000
O    -0.700000000    -5.024000000    -0.673000000
H    -1.204000000    -4.438000000    -1.239000000
H     0.112000000    -4.548000000    -0.499000000
O    -4.532000000    -4.194000000     1.205000000
H    -4.223000000    -3.925000000     0.340000000
H    -4.444000000    -3.408000000     1.745000000
O     0.965000000    -2.741000000     5.065000000
H     1.057000000    -3.419000000     4.396000000
H     1.825000000    -2.699000000     5.484000000
O    -2.750000000     0.088000000    -2.561000000
H    -2.260000000    -0.092000000    -3.363000000
H    -2.191000000    -0.245000000    -1.859000000
O     4.328000000    -2.690000000     0.482000000
H     3.622000000    -2.639000000    -0.162000000
H     3.958000000    -3.197000000     1.204000000
O     4.606000000     5.127000000    -1.701000000
H     4.971000000     4.417000000    -2.229000000
H     5.195000000     5.193000000    -0.949000000
O    -7.323000000    -1.518000000    -0.494000000
H    -6.375000000    -1.424000000    -0.398000000
H    -7.440000000    -2.392000000    -0.866000000
O    -1.239000000     5.796000000    -0.501000000
H    -0.648000000     6.481000000    -0.815000000
H    -1.380000000     5.234000000    -1.263000000
O    -2.137000000    -2.963000000     5.255000000
H    -2.440000000    -2.642000000     4.405000000
H    -1.232000000    -2.658000000     5.317000000
O    -2.994000000     0.948000000     4.008000000
H    -2.165000000     0.661000000     4.393000000
H    -2.857000000     1.874000000     3.807000000
O     1.793000000    -4.266000000    -1.044000000
H     2.119000000    -5.111000000    -0.735000000
H     2.559000000    -3.837000000    -1.424000000
O     6.772000000    -3.086000000    -1.008000000
H     6.048000000    -2.943000000    -0.399000000
H     7.544000000    -3.165000000    -0.447000000
