144
-2789.45494
O    -4.397000000    -0.510000000    -2.034000000
H    -4.673000000    -1.383000000    -2.311000000
H    -3.443000000    -0.524000000    -2.113000000
O     7.280000000    -2.358000000    -1.280000000
H     6.430000000    -2.797000000    -1.270000000
H     7.557000000    -2.351000000    -0.364000000
O    -1.968000000    -4.170000000     2.132000000
H    -1.103000000    -4.013000000     2.510000000
H    -2.434000000    -3.342000000     2.249000000
O     4.986000000    -2.082000000    -3.718000000
H     5.861000000    -2.464000000    -3.642000000
H     4.499000000    -2.451000000    -2.980000000
O    -4.520000000    -0.273000000     5.044000000
H    -3.696000000    -0.246000000     4.557000000
H    -5.173000000    -0.534000000     4.395000000
O    -3.833000000     3.121000000     4.722000000
H    -4.523000000     2.459000000     4.697000000
H    -4.287000000     3.947000000     4.551000000
O    -0.153000000     3.485000000    -7.001000000
H     0.319000000     2.822000000    -6.497000000
H    -1.013000000     3.535000000    -6.584000000
O     3.392000000    -0.641000000    -5.578000000
H     2.693000000    -1.276000000    -5.737000000
H     3.751000000    -0.888000000    -4.726000000
O     0.817000000     2.483000000     3.443000000
H     0.736000000     2.478000000     4.397000000
H     0.089000000     3.027000000     3.144000000
O    -2.257000000     0.370000000    -3.501000000
H    -2.798000000     0.410000000    -4.289000000
H    -2.032000000     1.282000000    -3.318000000
O    -1.432000000     6.294000000    -4.637000000
H    -1.431000000     6.363000000    -5.592000000
H    -0.903000000     5.518000000    -4.452000000
O     2.732000000     0.406000000     3.153000000
H     2.679000000     0.581000000     4.093000000
H     2.115000000     1.023000000     2.760000000
O     6.327000000     0.544000000    -0.256000000
H     5.916000000     0.158000000     0.517000000
H     6.460000000    -0.194000000    -0.851000000
O    -6.198000000     0.791000000    -3.865000000
H    -5.381000000     0.563000000    -3.420000000
H    -6.583000000    -0.052000000    -4.106000000
O     3.469000000    -4.445000000     1.290000000
H     3.122000000    -3.678000000     0.835000000
H     3.795000000    -4.103000000     2.123000000
O    -0.169000000     4.111000000    -3.864000000
H    -0.523000000     3.828000000    -3.021000000
H     0.423000000     3.404000000    -4.124000000
O     0.600000000     6.296000000    -0.832000000
H     0.957000000     6.790000000    -0.093000000
H     1.105000000     5.483000000    -0.843000000
O     2.712000000    -4.540000000    -3.935000000
H     3.603000000    -4.886000000    -3.982000000
H     2.430000000    -4.728000000    -3.040000000
O    -0.804000000    -5.828000000    -1.089000000
H    -0.885000000    -4.879000000    -0.993000000
H    -1.495000000    -6.186000000    -0.531000000
O    -0.418000000     6.147000000     3.431000000
H     0.089000000     5.815000000     4.173000000
H    -0.853000000     5.373000000     3.074000000
O     0.901000000    -1.933000000    -5.079000000
H     1.362000000    -2.768000000    -5.157000000
H     0.314000000    -2.052000000    -4.333000000
O     3.238000000     3.308000000    -5.575000000
H     2.573000000     3.573000000    -6.209000000
H     2.907000000     2.489000000    -5.207000000
O    -0.176000000    -4.583000000     4.132000000
H    -1.097000000    -4.785000000     4.297000000
H    -0.090000000    -3.657000000     4.361000000
O    -2.284000000     6.215000000    -0.413000000
H    -2.487000000     5.335000000    -0.096000000
H    -1.351000000     6.185000000    -0.621000000
O     0.175000000    -7.591000000     3.186000000
H    -0.223000000    -6.720000000     3.170000000
H     0.583000000    -7.652000000     4.049000000
O    -3.432000000    -1.769000000     1.866000000
H    -4.236000000    -1.579000000     1.383000000
H    -3.090000000    -0.909000000     2.110000000
O    -2.131000000    -3.313000000    -0.861000000
H    -2.114000000    -2.766000000    -0.076000000
H    -3.059000000    -3.504000000    -1.000000000
O     0.884000000     1.591000000    -4.699000000
H     1.628000000     1.459000000    -4.112000000
H     0.509000000     0.718000000    -4.810000000
O     5.539000000    -0.269000000     2.963000000
H     5.409000000    -0.814000000     3.740000000
H     4.653000000    -0.053000000     2.672000000
O     4.371000000    -3.257000000     3.492000000
H     5.090000000    -2.738000000     3.851000000
H     4.189000000    -3.913000000     4.165000000
O    -2.974000000     3.071000000    -6.138000000
H    -3.693000000     3.316000000    -5.555000000
H    -2.993000000     2.114000000    -6.152000000
O    -5.280000000    -0.320000000     0.717000000
H    -5.004000000     0.546000000     1.016000000
H    -5.153000000    -0.298000000    -0.231000000
O     2.017000000    -5.126000000    -1.294000000
H     1.110000000    -5.430000000    -1.311000000
H     2.482000000    -5.786000000    -0.780000000
O     1.591000000     3.656000000     0.168000000
H     1.031000000     2.893000000     0.309000000
H     2.069000000     3.757000000     0.991000000
O    -4.580000000     4.451000000     1.744000000
H    -4.850000000     3.604000000     2.097000000
H    -4.642000000     4.345000000     0.794000000
O    -2.060000000    -0.312000000     4.005000000
H    -1.412000000    -0.849000000     4.461000000
H    -1.612000000     0.517000000     3.840000000
O     2.401000000    -7.042000000     1.460000000
H     2.688000000    -6.147000000     1.642000000
H     1.582000000    -7.135000000     1.946000000
O    -6.366000000     5.457000000    -1.976000000
H    -6.214000000     4.732000000    -1.369000000
H    -5.667000000     5.376000000    -2.625000000
O    -4.539000000     7.551000000    -1.056000000
H    -5.234000000     6.922000000    -1.248000000
H    -3.782000000     7.010000000    -0.829000000
O     3.728000000     4.384000000    -1.319000000
H     4.087000000     5.233000000    -1.060000000
H     2.934000000     4.289000000    -0.793000000
O    -0.398000000    -0.237000000     6.235000000
H     0.078000000    -0.329000000     7.061000000
H    -0.774000000    -1.103000000     6.078000000
O    -3.721000000     3.847000000    -3.426000000
H    -3.454000000     4.577000000    -3.984000000
H    -2.930000000     3.615000000    -2.939000000
O    -4.659000000     3.417000000    -0.862000000
H    -4.584000000     3.545000000    -1.808000000
H    -3.755000000     3.418000000    -0.548000000
O     4.357000000    -3.570000000    -1.548000000
H     5.009000000    -4.253000000    -1.389000000
H     3.522000000    -3.977000000    -1.318000000
O    -1.534000000     3.945000000     2.467000000
H    -2.344000000     3.795000000     2.953000000
H    -1.763000000     3.763000000     1.556000000
O    -1.045000000    -2.235000000    -3.041000000
H    -1.159000000    -2.567000000    -2.150000000
H    -1.293000000    -1.312000000    -2.986000000
O    -3.405000000     6.887000000     2.886000000
H    -3.754000000     6.152000000     2.381000000
H    -3.120000000     6.496000000     3.712000000
O     3.063000000     1.498000000    -3.012000000
H     3.858000000     1.197000000    -3.454000000
H     3.357000000     2.218000000    -2.455000000
