144
-2792.39123
O    -1.608000000    -1.764000000    -2.577000000
H    -1.173000000    -2.120000000    -1.803000000
H    -1.117000000    -2.122000000    -3.315000000
O     1.485000000     5.311000000    -1.334000000
H     2.348000000     5.726000000    -1.308000000
H     1.656000000     4.424000000    -1.650000000
O    -0.469000000     7.415000000    -1.488000000
H     0.359000000     6.936000000    -1.494000000
H    -0.278000000     8.216000000    -0.999000000
O    -4.254000000     1.932000000    -1.866000000
H    -4.818000000     1.630000000    -2.579000000
H    -3.406000000     1.525000000    -2.044000000
O     5.835000000     3.539000000    -2.326000000
H     5.345000000     4.162000000    -2.863000000
H     6.421000000     4.084000000    -1.802000000
O     0.378000000    -2.280000000    -4.596000000
H     1.243000000    -1.938000000    -4.372000000
H    -0.011000000    -1.604000000    -5.149000000
O    -2.037000000     4.453000000     1.727000000
H    -1.110000000     4.213000000     1.707000000
H    -2.185000000     4.905000000     0.896000000
O    -2.006000000    -7.022000000    -0.809000000
H    -1.207000000    -7.279000000    -0.348000000
H    -1.933000000    -6.073000000    -0.904000000
O     2.819000000     3.453000000    -4.765000000
H     2.862000000     2.564000000    -5.118000000
H     2.421000000     3.349000000    -3.901000000
O    -4.710000000    -0.115000000     0.433000000
H    -3.956000000     0.474000000     0.397000000
H    -4.726000000    -0.536000000    -0.426000000
O     2.702000000    -4.365000000     3.087000000
H     3.382000000    -4.831000000     3.573000000
H     1.965000000    -4.976000000     3.060000000
O    -1.695000000     0.756000000     4.870000000
H    -0.962000000     1.200000000     4.444000000
H    -1.452000000    -0.169000000     4.863000000
O     0.533000000     4.569000000     0.992000000
H     0.749000000     4.903000000     0.121000000
H     1.303000000     4.064000000     1.252000000
O     3.753000000    -3.253000000    -0.593000000
H     3.352000000    -2.804000000     0.152000000
H     4.420000000    -2.644000000    -0.909000000
O     7.238000000     2.248000000    -5.401000000
H     7.370000000     2.998000000    -4.821000000
H     6.573000000     1.719000000    -4.961000000
O     1.706000000    -4.881000000    -1.831000000
H     1.721000000    -5.502000000    -1.102000000
H     2.348000000    -4.214000000    -1.589000000
O     2.165000000     1.100000000     2.385000000
H     2.630000000     1.881000000     2.085000000
H     1.991000000     0.604000000     1.585000000
O     4.860000000     1.751000000    -0.558000000
H     5.378000000     2.284000000    -1.161000000
H     4.121000000     1.444000000    -1.084000000
O     4.213000000     0.543000000    -7.670000000
H     3.702000000     0.705000000    -6.877000000
H     3.818000000     1.111000000    -8.331000000
O     5.298000000     1.217000000    -3.687000000
H     5.544000000     2.004000000    -3.201000000
H     4.405000000     1.027000000    -3.401000000
O    -5.106000000     5.179000000    -1.335000000
H    -5.401000000     4.268000000    -1.306000000
H    -4.219000000     5.132000000    -1.691000000
O     2.287000000     0.939000000    -5.759000000
H     1.719000000     0.552000000    -6.425000000
H     2.123000000     0.418000000    -4.973000000
O    -0.863000000     3.441000000    -3.011000000
H    -1.213000000     2.578000000    -3.233000000
H     0.087000000     3.333000000    -3.059000000
O     2.196000000    -6.434000000     0.762000000
H     1.409000000    -6.379000000     1.304000000
H     2.426000000    -7.363000000     0.767000000
O     0.441000000     2.735000000     4.046000000
H     0.877000000     2.391000000     3.266000000
H     0.926000000     3.531000000     4.260000000
O    -5.111000000    -3.620000000     5.123000000
H    -4.818000000    -3.941000000     4.270000000
H    -5.869000000    -3.069000000     4.924000000
O     3.251000000     3.434000000     1.689000000
H     3.918000000     3.348000000     1.007000000
H     3.273000000     4.360000000     1.930000000
O    -1.388000000    -0.518000000     8.045000000
H    -1.078000000    -1.110000000     7.360000000
H    -1.216000000    -0.985000000     8.862000000
O    -6.300000000    -0.142000000     2.793000000
H    -6.073000000     0.584000000     3.375000000
H    -5.613000000    -0.140000000     2.127000000
O     1.424000000     3.817000000    -7.652000000
H     1.690000000     3.622000000    -6.753000000
H     0.591000000     4.279000000    -7.560000000
O     2.851000000    -1.419000000    -3.662000000
H     3.637000000    -1.845000000    -3.322000000
H     2.899000000    -0.523000000    -3.327000000
O    -2.177000000    -4.068000000    -0.809000000
H    -2.586000000    -3.704000000    -1.594000000
H    -2.198000000    -3.353000000    -0.173000000
O    -5.451000000    -3.171000000    -0.934000000
H    -5.143000000    -2.368000000    -1.354000000
H    -5.764000000    -2.887000000    -0.075000000
O    -3.900000000     0.470000000     6.609000000
H    -3.327000000     0.875000000     5.957000000
H    -3.304000000     0.157000000     7.289000000
O    -2.294000000    -4.011000000     5.684000000
H    -3.160000000    -3.924000000     5.285000000
H    -2.293000000    -4.888000000     6.067000000
O     1.979000000    -3.216000000     5.677000000
H     2.539000000    -3.928000000     5.368000000
H     2.584000000    -2.497000000     5.858000000
O     5.614000000    -1.221000000    -1.306000000
H     6.561000000    -1.268000000    -1.171000000
H     5.362000000    -0.373000000    -0.941000000
O     3.031000000     0.138000000     4.787000000
H     2.471000000     0.175000000     4.011000000
H     2.861000000     0.961000000     5.244000000
O    -2.151000000     0.755000000    -3.512000000
H    -2.434000000     0.744000000    -4.426000000
H    -2.035000000    -0.168000000    -3.286000000
O     2.606000000    -1.940000000     1.864000000
H     1.702000000    -1.720000000     1.640000000
H     2.551000000    -2.815000000     2.249000000
O     3.712000000     6.944000000    -2.132000000
H     3.447000000     7.761000000    -2.554000000
H     4.115000000     6.432000000    -2.833000000
O     4.464000000     5.471000000    -4.114000000
H     4.628000000     5.932000000    -4.936000000
H     4.066000000     4.642000000    -4.379000000
O     6.096000000    -1.546000000    -4.923000000
H     5.821000000    -0.808000000    -4.378000000
H     6.368000000    -1.146000000    -5.749000000
O    -2.330000000     5.487000000    -1.610000000
H    -1.642000000     6.148000000    -1.681000000
H    -2.012000000     4.752000000    -2.135000000
O    -0.661000000    -1.763000000     5.437000000
H     0.215000000    -2.139000000     5.346000000
H    -1.209000000    -2.496000000     5.718000000
O    -3.832000000     2.898000000     3.363000000
H    -3.298000000     2.142000000     3.608000000
H    -3.207000000     3.523000000     2.996000000
O     0.274000000    -4.870000000    -4.106000000
H     0.768000000    -4.843000000    -3.286000000
H     0.013000000    -3.962000000    -4.259000000
O     4.733000000    -3.578000000    -3.831000000
H     5.202000000    -3.008000000    -4.441000000
H     5.418000000    -3.949000000    -3.275000000
