144
-2849.97618
O     0.202000000    -1.269000000    -2.758000000
H     0.185000000    -0.764000000    -1.944000000
H     1.131000000    -1.347000000    -2.972000000
O     1.945000000     4.449000000     0.775000000
H     1.909000000     3.767000000     0.104000000
H     1.116000000     4.919000000     0.683000000
O     7.172000000    -0.362000000    -1.332000000
H     7.708000000     0.428000000    -1.274000000
H     6.387000000    -0.086000000    -1.805000000
O     4.075000000     6.608000000    -0.969000000
H     3.804000000     5.777000000    -1.359000000
H     3.510000000     6.707000000    -0.202000000
O    -5.651000000     0.738000000     0.756000000
H    -6.607000000     0.696000000     0.794000000
H    -5.449000000     0.749000000    -0.179000000
O     2.388000000     2.076000000    -4.192000000
H     2.693000000     2.799000000    -4.740000000
H     1.986000000     2.502000000    -3.435000000
O    -2.475000000     4.184000000     1.190000000
H    -2.539000000     3.840000000     2.080000000
H    -2.901000000     5.040000000     1.233000000
O     0.553000000     5.465000000    -3.205000000
H     1.503000000     5.524000000    -3.305000000
H     0.427000000     4.877000000    -2.460000000
O    -4.704000000     0.788000000    -1.981000000
H    -5.569000000     1.172000000    -2.124000000
H    -4.333000000     0.701000000    -2.859000000
O    -6.019000000    -4.119000000    -0.223000000
H    -5.771000000    -4.955000000    -0.620000000
H    -5.396000000    -3.489000000    -0.584000000
O     5.527000000     1.311000000    -2.650000000
H     5.571000000     2.097000000    -3.195000000
H     4.692000000     1.385000000    -2.190000000
O    -2.728000000     5.637000000    -1.668000000
H    -2.852000000     5.741000000    -2.611000000
H    -3.039000000     4.751000000    -1.482000000
O    -3.851000000     0.842000000    -4.692000000
H    -4.223000000    -0.025000000    -4.851000000
H    -4.391000000     1.434000000    -5.215000000
O     3.272000000     7.614000000    -3.890000000
H     3.301000000     6.735000000    -3.512000000
H     4.024000000     8.064000000    -3.507000000
O    -6.498000000    -2.698000000     2.682000000
H    -6.308000000    -3.502000000     3.165000000
H    -6.488000000    -2.962000000     1.762000000
O     4.369000000     5.632000000     1.838000000
H     3.697000000     5.040000000     1.502000000
H     5.196000000     5.232000000     1.572000000
O    -0.406000000    -1.862000000     4.930000000
H    -1.348000000    -1.703000000     4.875000000
H    -0.021000000    -0.991000000     5.027000000
O    -0.255000000    -5.682000000    -1.788000000
H    -0.400000000    -5.646000000    -2.733000000
H     0.428000000    -6.343000000    -1.675000000
O     3.143000000    -0.797000000    -3.448000000
H     3.214000000     0.150000000    -3.567000000
H     3.389000000    -0.943000000    -2.534000000
O    -1.977000000    -2.828000000    -3.521000000
H    -1.605000000    -3.645000000    -3.852000000
H    -1.227000000    -2.346000000    -3.173000000
O     4.785000000     2.202000000     1.051000000
H     4.208000000     1.916000000     0.342000000
H     4.228000000     2.196000000     1.830000000
O     5.721000000     3.755000000    -4.140000000
H     6.082000000     4.067000000    -4.970000000
H     6.258000000     4.180000000    -3.471000000
O     3.342000000     4.766000000    -2.990000000
H     3.003000000     4.121000000    -2.370000000
H     4.140000000     4.368000000    -3.338000000
O     0.295000000     0.673000000    -4.963000000
H     0.237000000     0.087000000    -4.208000000
H     1.132000000     1.124000000    -4.854000000
O     2.293000000    -5.897000000    -0.141000000
H     1.856000000    -6.609000000     0.325000000
H     2.804000000    -5.448000000     0.533000000
O    -3.394000000    -2.078000000     4.558000000
H    -3.615000000    -2.912000000     4.143000000
H    -3.913000000    -1.429000000     4.083000000
O     4.007000000    -1.527000000    -0.774000000
H     3.502000000    -2.235000000    -0.373000000
H     4.665000000    -1.301000000    -0.117000000
O     0.046000000     0.911000000     5.262000000
H    -0.024000000     1.209000000     4.355000000
H    -0.456000000     1.554000000     5.764000000
O     6.571000000     4.226000000     0.633000000
H     7.116000000     4.012000000     1.389000000
H     6.052000000     3.437000000     0.480000000
O    -4.315000000     3.391000000    -0.855000000
H    -3.770000000     3.274000000    -0.076000000
H    -4.152000000     2.607000000    -1.380000000
O     2.277000000    -3.798000000    -1.739000000
H     1.453000000    -3.837000000    -2.225000000
H     2.295000000    -4.611000000    -1.234000000
O     3.143000000    -0.390000000     3.809000000
H     3.862000000    -0.221000000     4.418000000
H     3.031000000     0.435000000     3.336000000
O    -3.621000000    -4.350000000     2.747000000
H    -3.776000000    -4.521000000     1.818000000
H    -4.354000000    -4.775000000     3.194000000
O    -4.149000000     1.542000000     5.202000000
H    -4.001000000     1.092000000     4.371000000
H    -4.724000000     0.956000000     5.693000000
O     6.099000000    -0.272000000     1.323000000
H     6.364000000    -0.506000000     0.433000000
H     5.746000000     0.614000000     1.243000000
O    -0.377000000     6.092000000     0.144000000
H    -0.552000000     6.230000000    -0.787000000
H    -1.057000000     5.481000000     0.428000000
O    -1.056000000    -6.618000000     3.215000000
H    -0.521000000    -6.965000000     2.501000000
H    -1.194000000    -5.699000000     2.987000000
O     0.179000000     2.054000000     2.309000000
H     0.096000000     1.206000000     1.872000000
H    -0.011000000     2.696000000     1.625000000
O    -3.507000000     4.731000000    -4.453000000
H    -2.980000000     3.965000000    -4.682000000
H    -3.132000000     5.443000000    -4.972000000
O    -3.049000000    -5.522000000    -1.441000000
H    -2.102000000    -5.517000000    -1.583000000
H    -3.260000000    -4.619000000    -1.201000000
O     3.132000000    -3.762000000     1.400000000
H     2.412000000    -3.438000000     1.942000000
H     3.881000000    -3.800000000     1.994000000
O     5.121000000    -3.328000000    -2.515000000
H     5.117000000    -2.440000000    -2.158000000
H     4.223000000    -3.638000000    -2.396000000
O     3.001000000     2.430000000     3.178000000
H     3.115000000     2.712000000     4.086000000
H     2.089000000     2.637000000     2.976000000
O    -1.729000000     2.579000000    -4.616000000
H    -2.333000000     1.837000000    -4.576000000
H    -0.880000000     2.186000000    -4.819000000
O     4.913000000    -2.484000000     2.965000000
H     5.335000000    -1.852000000     2.382000000
H     4.890000000    -2.047000000     3.816000000
O     2.020000000    -3.090000000     4.194000000
H     2.516000000    -2.277000000     4.091000000
H     1.147000000    -2.805000000     4.462000000
O    -5.124000000    -0.234000000     3.384000000
H    -5.744000000    -0.963000000     3.385000000
H    -5.428000000     0.339000000     2.680000000
O    -3.902000000    -2.624000000    -1.582000000
H    -3.172000000    -2.694000000    -2.197000000
H    -4.392000000    -1.857000000    -1.878000000
