144
-2825.74457
O    -0.581000000    -1.220000000    -3.196000000
H     0.314000000    -0.953000000    -2.985000000
H    -0.480000000    -1.858000000    -3.902000000
O     8.248000000    -0.142000000    -3.912000000
H     7.328000000     0.119000000    -3.927000000
H     8.261000000    -0.944000000    -3.388000000
O     5.632000000    -3.209000000    -2.513000000
H     6.388000000    -2.672000000    -2.275000000
H     4.882000000    -2.745000000    -2.143000000
O    -0.839000000     4.737000000    -4.098000000
H    -1.369000000     5.374000000    -4.577000000
H     0.064000000     5.018000000    -4.246000000
O     4.630000000     0.454000000    -5.723000000
H     5.139000000     0.743000000    -4.966000000
H     4.771000000    -0.491000000    -5.762000000
O     0.876000000    -1.888000000     3.594000000
H     1.425000000    -2.459000000     4.131000000
H     0.837000000    -2.324000000     2.743000000
O    -6.241000000     3.455000000    -0.042000000
H    -5.742000000     3.738000000     0.724000000
H    -5.576000000     3.218000000    -0.688000000
O    -3.561000000     5.530000000    -2.408000000
H    -3.570000000     5.574000000    -1.452000000
H    -2.726000000     5.112000000    -2.621000000
O    -3.463000000    -5.079000000     1.134000000
H    -3.581000000    -5.364000000     0.228000000
H    -4.353000000    -4.991000000     1.474000000
O    -5.668000000     0.882000000     1.626000000
H    -5.797000000     1.829000000     1.569000000
H    -4.954000000     0.775000000     2.255000000
O    -5.179000000    -0.110000000    -3.789000000
H    -4.385000000    -0.341000000    -3.308000000
H    -5.041000000     0.799000000    -4.057000000
O    -5.346000000    -3.073000000    -2.008000000
H    -6.195000000    -2.828000000    -2.375000000
H    -5.301000000    -2.603000000    -1.176000000
O     3.962000000     3.729000000    -3.987000000
H     3.699000000     3.307000000    -3.170000000
H     4.910000000     3.838000000    -3.907000000
O    -2.894000000     0.120000000    -2.155000000
H    -2.402000000     0.612000000    -2.813000000
H    -2.306000000    -0.591000000    -1.899000000
O    -2.056000000     3.262000000     2.981000000
H    -2.064000000     4.206000000     3.142000000
H    -1.144000000     3.063000000     2.771000000
O     5.249000000    -1.284000000    -0.567000000
H     4.438000000    -0.776000000    -0.578000000
H     5.940000000    -0.629000000    -0.473000000
O     0.428000000     2.629000000     2.101000000
H     0.546000000     1.982000000     1.405000000
H     1.219000000     2.552000000     2.636000000
O    -2.498000000    -2.514000000    -1.932000000
H    -2.190000000    -2.341000000    -2.822000000
H    -3.432000000    -2.699000000    -2.033000000
O     1.544000000    -1.717000000    -5.823000000
H     2.174000000    -2.333000000    -6.199000000
H     1.942000000    -1.441000000    -4.997000000
O     6.831000000     0.783000000    -0.024000000
H     6.399000000     1.629000000    -0.135000000
H     7.718000000     1.002000000     0.263000000
O     4.751000000     2.756000000     0.112000000
H     4.192000000     3.361000000     0.598000000
H     4.148000000     2.278000000    -0.458000000
O    -2.501000000    -4.130000000     3.757000000
H    -1.616000000    -4.493000000     3.718000000
H    -2.731000000    -3.961000000     2.843000000
O    -5.461000000    -1.754000000     0.460000000
H    -4.714000000    -1.989000000     1.011000000
H    -5.695000000    -0.869000000     0.738000000
O     1.413000000     2.019000000    -4.654000000
H     2.150000000     1.423000000    -4.525000000
H     0.882000000     1.919000000    -3.864000000
O     0.912000000    -4.981000000     0.797000000
H     1.569000000    -4.306000000     0.966000000
H     0.408000000    -4.645000000     0.057000000
O     3.218000000    -3.576000000     1.532000000
H     3.832000000    -3.983000000     2.144000000
H     3.419000000    -2.641000000     1.577000000
O     6.858000000     4.467000000    -0.793000000
H     7.472000000     4.694000000    -0.095000000
H     6.027000000     4.318000000    -0.342000000
O    -5.107000000    -2.859000000     3.410000000
H    -4.501000000    -3.541000000     3.702000000
H    -5.958000000    -3.295000000     3.375000000
O     3.043000000     4.897000000     0.558000000
H     2.553000000     5.282000000     1.285000000
H     2.409000000     4.845000000    -0.157000000
O     1.824000000    -3.679000000    -2.063000000
H     2.393000000    -4.375000000    -1.734000000
H     0.947000000    -3.929000000    -1.772000000
O    -4.226000000     2.669000000    -1.594000000
H    -3.798000000     1.940000000    -1.146000000
H    -4.003000000     2.548000000    -2.517000000
O    -3.754000000     0.805000000     3.884000000
H    -3.447000000     0.221000000     4.578000000
H    -3.017000000     1.395000000     3.725000000
O    -2.698000000    -1.558000000     5.280000000
H    -1.775000000    -1.331000000     5.394000000
H    -2.691000000    -2.494000000     5.081000000
O    -8.243000000     0.129000000     2.599000000
H    -7.286000000     0.124000000     2.615000000
H    -8.486000000     0.935000000     3.055000000
O     5.774000000     0.964000000    -3.125000000
H     5.217000000     0.421000000    -2.567000000
H     5.787000000     1.817000000    -2.692000000
O    -5.810000000    -0.662000000     5.252000000
H    -5.178000000    -0.057000000     4.863000000
H    -5.928000000    -1.343000000     4.590000000
O    -0.917000000     6.068000000    -0.108000000
H    -0.334000000     5.430000000    -0.521000000
H    -0.856000000     6.843000000    -0.667000000
O    -0.242000000    -5.425000000     3.449000000
H     0.445000000    -5.286000000     4.102000000
H     0.231000000    -5.526000000     2.623000000
O    -7.370000000     0.883000000    -0.806000000
H    -7.468000000     1.787000000    -1.105000000
H    -6.985000000     0.959000000     0.067000000
O    -2.228000000     2.200000000    -4.251000000
H    -1.698000000     2.997000000    -4.267000000
H    -2.520000000     2.088000000    -5.156000000
O    -0.523000000     0.438000000     4.262000000
H    -0.364000000     0.615000000     3.335000000
H    -0.160000000    -0.436000000     4.404000000
O     3.918000000    -0.291000000     2.442000000
H     4.493000000     0.218000000     1.871000000
H     3.450000000     0.366000000     2.958000000
O    -0.744000000    -4.227000000    -1.206000000
H    -1.397000000    -4.842000000    -1.542000000
H    -1.145000000    -3.366000000    -1.319000000
O     1.186000000     4.804000000    -1.395000000
H     1.533000000     3.912000000    -1.419000000
H     0.948000000     4.993000000    -2.302000000
O     6.378000000    -3.290000000     1.293000000
H     7.019000000    -2.585000000     1.384000000
H     5.770000000    -2.976000000     0.624000000
O     1.939000000     5.213000000    -4.698000000
H     2.311000000     6.095000000    -4.731000000
H     2.697000000     4.637000000    -4.600000000
O    -4.841000000     3.753000000     2.424000000
H    -4.049000000     3.298000000     2.710000000
H    -5.092000000     4.292000000     3.175000000
O     2.513000000    -1.243000000    -3.500000000
H     2.439000000    -2.139000000    -3.171000000
H     2.874000000    -0.748000000    -2.764000000
