144
-2833.11403
O     1.439000000     1.961000000     2.463000000
H     0.485000000     1.886000000     2.430000000
H     1.639000000     2.057000000     3.395000000
O     7.081000000     2.804000000    -2.233000000
H     6.553000000     2.060000000    -2.524000000
H     6.558000000     3.573000000    -2.459000000
O     0.303000000    -5.098000000     0.723000000
H     1.250000000    -4.978000000     0.789000000
H     0.079000000    -4.765000000    -0.146000000
O    -3.070000000    -3.379000000    -0.135000000
H    -3.341000000    -2.484000000     0.068000000
H    -3.090000000    -3.426000000    -1.091000000
O     3.808000000    -2.751000000     2.681000000
H     3.235000000    -2.602000000     3.433000000
H     4.102000000    -1.876000000     2.428000000
O     2.454000000    -6.086000000     3.391000000
H     2.527000000    -5.174000000     3.110000000
H     3.183000000    -6.208000000     4.000000000
O    -1.143000000    -7.002000000     2.017000000
H    -1.680000000    -6.965000000     1.225000000
H    -0.424000000    -6.393000000     1.848000000
O    -1.184000000    -1.925000000    -2.355000000
H    -1.133000000    -1.241000000    -1.687000000
H    -1.890000000    -1.641000000    -2.935000000
O    -2.127000000    -2.732000000     6.510000000
H    -2.203000000    -3.669000000     6.692000000
H    -2.914000000    -2.521000000     6.007000000
O     2.676000000     2.227000000    -5.450000000
H     2.227000000     1.803000000    -4.718000000
H     2.217000000     1.912000000    -6.228000000
O    -1.668000000    -1.786000000    -5.435000000
H    -1.022000000    -2.435000000    -5.158000000
H    -1.241000000    -0.943000000    -5.283000000
O     1.410000000     1.997000000     5.314000000
H     1.632000000     2.623000000     6.002000000
H     0.855000000     1.350000000     5.750000000
O     0.046000000    -3.564000000     4.332000000
H    -0.781000000    -3.575000000     4.813000000
H    -0.211000000    -3.630000000     3.412000000
O    -1.375000000     2.466000000     4.156000000
H    -0.803000000     2.134000000     4.848000000
H    -2.217000000     2.041000000     4.317000000
O     7.007000000    -0.119000000     0.619000000
H     6.132000000    -0.411000000     0.365000000
H     6.924000000     0.830000000     0.715000000
O    -4.745000000     1.795000000     1.919000000
H    -4.104000000     1.296000000     2.425000000
H    -4.940000000     2.558000000     2.463000000
O     2.949000000    -0.714000000    -4.901000000
H     2.919000000    -0.151000000    -4.128000000
H     3.189000000    -1.576000000    -4.562000000
O     5.986000000    -4.520000000    -0.707000000
H     6.901000000    -4.448000000    -0.437000000
H     5.783000000    -3.669000000    -1.096000000
O    -0.781000000     0.192000000     6.311000000
H    -0.550000000    -0.705000000     6.551000000
H    -1.398000000     0.470000000     6.987000000
O     0.408000000    -3.358000000    -4.698000000
H    -0.174000000    -3.957000000    -4.230000000
H     1.212000000    -3.349000000    -4.179000000
O     3.075000000    -3.221000000    -3.363000000
H     3.392000000    -4.069000000    -3.052000000
H     2.771000000    -2.775000000    -2.572000000
O     1.769000000     4.641000000     1.114000000
H     1.184000000     5.066000000     0.487000000
H     1.218000000     3.996000000     1.557000000
O     3.265000000     4.356000000    -2.785000000
H     2.641000000     5.004000000    -3.113000000
H     2.939000000     3.520000000    -3.121000000
O    -3.538000000     4.734000000    -0.648000000
H    -3.835000000     3.866000000    -0.920000000
H    -3.911000000     4.853000000     0.225000000
O     2.345000000    -3.034000000     5.487000000
H     2.418000000    -3.496000000     6.322000000
H     1.500000000    -3.312000000     5.133000000
O    -3.617000000     0.541000000     4.650000000
H    -3.786000000    -0.382000000     4.460000000
H    -3.370000000     0.553000000     5.575000000
O     0.029000000     4.011000000    -2.816000000
H     0.370000000     3.158000000    -3.084000000
H    -0.872000000     4.022000000    -3.138000000
O    -4.427000000     2.120000000    -0.826000000
H    -4.469000000     1.823000000     0.083000000
H    -5.333000000     2.082000000    -1.133000000
O     4.490000000    -0.328000000    -7.087000000
H     3.903000000    -0.361000000    -6.332000000
H     5.363000000    -0.227000000    -6.708000000
O    -0.851000000     5.034000000    -0.483000000
H    -0.402000000     4.493000000    -1.132000000
H    -1.774000000     4.795000000    -0.570000000
O    -4.036000000    -0.810000000    -1.134000000
H    -4.872000000    -1.004000000    -1.558000000
H    -4.014000000     0.145000000    -1.074000000
O    -4.154000000    -2.231000000     4.300000000
H    -3.449000000    -2.780000000     3.957000000
H    -4.898000000    -2.409000000     3.723000000
O     6.307000000    -1.970000000    -2.354000000
H     6.513000000    -2.083000000    -3.282000000
H     7.118000000    -1.640000000    -1.967000000
O    -1.200000000     0.747000000    -4.361000000
H    -1.739000000     1.491000000    -4.093000000
H    -0.354000000     0.901000000    -3.940000000
O     0.902000000     0.112000000    -6.730000000
H     1.521000000    -0.387000000    -6.198000000
H     1.037000000    -0.211000000    -7.621000000
O     1.286000000     3.757000000    -7.665000000
H     1.454000000     4.470000000    -7.048000000
H     0.506000000     3.322000000    -7.321000000
O    -6.259000000    -2.740000000     2.557000000
H    -6.546000000    -2.986000000     1.678000000
H    -7.067000000    -2.691000000     3.068000000
O    -1.029000000     5.129000000     3.778000000
H    -0.687000000     5.172000000     2.885000000
H    -1.230000000     4.203000000     3.914000000
O     4.028000000     2.917000000     0.496000000
H     3.652000000     2.474000000    -0.264000000
H     3.422000000     3.636000000     0.678000000
O     4.683000000    -0.672000000    -0.533000000
H     5.060000000    -1.339000000    -1.106000000
H     3.946000000    -0.318000000    -1.030000000
O     0.307000000    -4.427000000    -1.941000000
H    -0.375000000    -5.078000000    -2.105000000
H    -0.135000000    -3.584000000    -2.045000000
O     3.654000000    -0.011000000     1.968000000
H     2.971000000     0.602000000     1.696000000
H     4.076000000    -0.277000000     1.151000000
O     1.396000000     6.655000000    -2.810000000
H     0.589000000     6.167000000    -2.647000000
H     1.101000000     7.496000000    -3.159000000
O    -2.335000000    -3.923000000     2.739000000
H    -2.202000000    -4.865000000     2.843000000
H    -2.768000000    -3.834000000     1.890000000
O    -2.575000000     2.755000000    -3.285000000
H    -3.188000000     2.881000000    -2.561000000
H    -2.963000000     3.239000000    -4.014000000
O    -0.932000000     2.866000000    -6.399000000
H    -0.971000000     2.005000000    -5.982000000
H    -1.065000000     3.485000000    -5.682000000
O     3.198000000    -4.489000000     0.609000000
H     4.035000000    -4.740000000     0.218000000
H     3.411000000    -3.745000000     1.173000000
O     5.279000000     1.417000000    -3.730000000
H     4.506000000     0.994000000    -3.357000000
H     5.261000000     1.175000000    -4.656000000
