144
-2806.09784
O    -1.903000000     6.463000000     1.865000000
H    -1.684000000     7.326000000     2.216000000
H    -1.515000000     6.454000000     0.990000000
O     3.251000000    -1.647000000     0.581000000
H     2.714000000    -2.037000000    -0.109000000
H     3.774000000    -0.984000000     0.130000000
O     6.534000000     4.008000000     0.956000000
H     5.766000000     4.545000000     1.150000000
H     6.338000000     3.158000000     1.350000000
O    -1.876000000     1.497000000     4.578000000
H    -2.081000000     2.382000000     4.879000000
H    -2.626000000     1.248000000     4.039000000
O    -3.865000000    -7.225000000     2.093000000
H    -4.739000000    -7.548000000     1.872000000
H    -3.362000000    -7.322000000     1.285000000
O    -0.690000000    -7.924000000     1.393000000
H    -1.182000000    -8.721000000     1.198000000
H     0.036000000    -8.218000000     1.943000000
O    -1.241000000    -8.689000000    -1.776000000
H    -1.956000000    -8.291000000    -2.271000000
H    -0.684000000    -7.952000000    -1.525000000
O     3.927000000     1.238000000    -2.758000000
H     3.900000000     2.037000000    -3.286000000
H     4.477000000     1.465000000    -2.008000000
O     0.911000000    -1.798000000     4.107000000
H     0.201000000    -2.184000000     3.594000000
H     1.693000000    -2.276000000     3.832000000
O    -4.691000000    -0.404000000     6.009000000
H    -4.576000000    -1.351000000     6.097000000
H    -4.516000000    -0.226000000     5.085000000
O    -3.874000000     0.092000000     3.441000000
H    -4.606000000     0.276000000     2.852000000
H    -3.481000000    -0.708000000     3.093000000
O     1.794000000    -5.363000000    -4.559000000
H     1.930000000    -4.435000000    -4.367000000
H     0.917000000    -5.402000000    -4.942000000
O    -0.561000000     6.624000000    -0.214000000
H    -0.750000000     6.474000000    -1.141000000
H     0.334000000     6.963000000    -0.204000000
O     0.417000000    -0.852000000    -5.949000000
H     1.053000000    -0.419000000    -6.519000000
H     0.913000000    -1.073000000    -5.161000000
O     3.099000000    -2.978000000     3.090000000
H     3.124000000    -3.864000000     2.729000000
H     3.068000000    -2.407000000     2.322000000
O     2.749000000     0.688000000    -6.188000000
H     2.534000000     1.613000000    -6.070000000
H     3.327000000     0.481000000    -5.453000000
O    -2.284000000    -6.075000000     0.229000000
H    -1.611000000    -6.583000000     0.681000000
H    -1.996000000    -5.166000000     0.315000000
O    -0.845000000    -4.900000000    -5.497000000
H    -1.475000000    -5.594000000    -5.690000000
H    -0.816000000    -4.373000000    -6.296000000
O     3.031000000    -5.004000000     0.709000000
H     3.428000000    -5.874000000     0.666000000
H     2.530000000    -5.010000000     1.524000000
O    -0.840000000     2.836000000    -4.251000000
H    -1.416000000     2.218000000    -3.802000000
H    -1.190000000     2.886000000    -5.141000000
O     2.005000000     6.799000000     3.640000000
H     2.526000000     6.052000000     3.346000000
H     2.636000000     7.379000000     4.067000000
O    -3.538000000    -2.734000000     2.801000000
H    -3.841000000    -3.639000000     2.883000000
H    -2.896000000    -2.760000000     2.091000000
O    -3.566000000    -1.518000000    -2.319000000
H    -3.153000000    -2.292000000    -2.701000000
H    -3.940000000    -1.828000000    -1.495000000
O     0.933000000     3.009000000     4.690000000
H     0.151000000     2.603000000     5.064000000
H     0.742000000     3.946000000     4.694000000
O     4.319000000     5.437000000     1.607000000
H     4.553000000     6.228000000     2.093000000
H     3.676000000     4.997000000     2.162000000
O    -3.010000000    -6.680000000    -2.386000000
H    -2.586000000    -5.983000000    -2.885000000
H    -2.841000000    -6.457000000    -1.471000000
O    -2.609000000     1.166000000    -1.958000000
H    -3.155000000     0.396000000    -2.117000000
H    -1.992000000     0.887000000    -1.281000000
O     1.225000000     4.370000000    -3.322000000
H     1.842000000     3.850000000    -2.806000000
H     0.539000000     3.750000000    -3.571000000
O    -5.499000000    -5.525000000    -0.730000000
H    -5.894000000    -4.969000000    -1.402000000
H    -4.560000000    -5.348000000    -0.795000000
O    -1.721000000    -3.443000000     5.760000000
H    -1.558000000    -3.715000000     4.857000000
H    -1.408000000    -2.540000000     5.799000000
O     2.784000000    -2.875000000    -4.177000000
H     3.543000000    -2.315000000    -4.344000000
H     2.858000000    -3.109000000    -3.252000000
O     6.425000000     1.841000000    -1.026000000
H     6.649000000     1.336000000    -0.244000000
H     6.371000000     2.746000000    -0.719000000
O    -4.779000000     2.490000000    -0.511000000
H    -4.609000000     1.668000000    -0.973000000
H    -4.008000000     2.618000000     0.042000000
O    -1.047000000     6.317000000    -2.974000000
H    -0.202000000     5.874000000    -3.054000000
H    -0.943000000     7.124000000    -3.477000000
O    -6.589000000    -1.859000000     2.220000000
H    -5.705000000    -1.867000000     2.589000000
H    -6.732000000    -2.759000000     1.925000000
O    -2.167000000    -3.548000000    -3.543000000
H    -1.622000000    -3.955000000    -4.216000000
H    -1.582000000    -3.443000000    -2.793000000
O    -0.942000000    -3.862000000     3.131000000
H    -1.263000000    -3.766000000     2.235000000
H    -0.347000000    -4.611000000     3.094000000
O     2.545000000     0.582000000     4.492000000
H     1.801000000     1.183000000     4.457000000
H     2.176000000    -0.235000000     4.827000000
O     3.180000000     4.059000000     3.807000000
H     2.618000000     3.288000000     3.892000000
H     4.070000000     3.716000000     3.891000000
O    -5.049000000    -4.906000000     3.136000000
H    -5.926000000    -5.264000000     3.274000000
H    -4.656000000    -5.481000000     2.480000000
O     4.627000000     6.418000000    -0.930000000
H     4.685000000     5.892000000    -0.133000000
H     4.336000000     7.279000000    -0.629000000
O    -2.582000000     2.703000000     1.157000000
H    -1.812000000     2.713000000     1.725000000
H    -3.203000000     3.292000000     1.585000000
O     4.821000000    -0.835000000    -4.437000000
H     5.355000000    -0.236000000    -4.959000000
H     4.503000000    -0.301000000    -3.709000000
O     0.243000000    -6.137000000    -1.919000000
H     0.943000000    -5.908000000    -2.531000000
H    -0.306000000    -5.353000000    -1.880000000
O     1.828000000    -3.255000000    -1.293000000
H     2.203000000    -4.045000000    -0.904000000
H     0.882000000    -3.388000000    -1.240000000
O    -1.197000000    -0.892000000     5.642000000
H    -0.341000000    -1.118000000     5.279000000
H    -1.426000000    -0.065000000     5.218000000
O    -2.222000000    -0.625000000    -5.185000000
H    -2.237000000    -1.092000000    -4.350000000
H    -1.311000000    -0.349000000    -5.290000000
O    -0.472000000     5.603000000     4.231000000
H    -0.620000000     5.863000000     3.322000000
H     0.168000000     6.235000000     4.559000000
