144
-2803.74129
O     0.929000000     3.994000000    -1.443000000
H     0.143000000     3.450000000    -1.395000000
H     1.497000000     3.540000000    -2.065000000
O    -4.252000000     3.995000000    -2.633000000
H    -4.172000000     4.733000000    -3.237000000
H    -3.731000000     3.299000000    -3.035000000
O     2.370000000     4.529000000     0.899000000
H     2.228000000     3.691000000     1.339000000
H     1.950000000     4.426000000     0.045000000
O     4.687000000    -0.363000000    -4.066000000
H     4.459000000    -0.135000000    -3.165000000
H     3.851000000    -0.365000000    -4.532000000
O     0.995000000    -2.990000000     5.640000000
H     1.903000000    -2.718000000     5.506000000
H     0.807000000    -3.567000000     4.900000000
O    -3.401000000     2.195000000     5.784000000
H    -4.004000000     1.873000000     6.454000000
H    -2.618000000     1.654000000     5.888000000
O     0.044000000     2.131000000    -4.763000000
H     0.397000000     2.323000000    -5.632000000
H     0.812000000     2.104000000    -4.193000000
O     3.592000000     6.285000000    -3.177000000
H     4.431000000     6.473000000    -3.597000000
H     3.556000000     5.329000000    -3.132000000
O     0.728000000     2.174000000     2.248000000
H     0.298000000     1.495000000     1.728000000
H     1.483000000     1.733000000     2.639000000
O     3.552000000     3.633000000    -3.199000000
H     3.006000000     2.851000000    -3.118000000
H     4.415000000     3.356000000    -2.889000000
O    -6.074000000    -2.973000000    -0.153000000
H    -6.925000000    -3.407000000    -0.093000000
H    -5.619000000    -3.433000000    -0.858000000
O     1.348000000     1.324000000     5.091000000
H     2.086000000     1.245000000     4.487000000
H     1.637000000     0.870000000     5.883000000
O    -1.828000000     3.383000000    -0.713000000
H    -2.189000000     3.741000000    -1.524000000
H    -2.535000000     2.847000000    -0.352000000
O    -0.765000000     3.509000000     4.016000000
H    -1.203000000     2.660000000     4.074000000
H    -0.156000000     3.416000000     3.283000000
O     6.270000000    -2.640000000    -1.253000000
H     6.234000000    -3.530000000    -0.902000000
H     5.388000000    -2.294000000    -1.118000000
O    -1.235000000     1.165000000    -7.367000000
H    -0.995000000     0.872000000    -6.488000000
H    -0.753000000     0.582000000    -7.953000000
O     3.147000000    -3.390000000     2.953000000
H     3.104000000    -2.984000000     3.819000000
H     4.058000000    -3.276000000     2.680000000
O    -1.336000000     0.623000000     4.983000000
H    -1.367000000    -0.324000000     5.115000000
H    -0.405000000     0.842000000     5.037000000
O    -3.571000000    -4.397000000     6.062000000
H    -3.214000000    -4.845000000     5.295000000
H    -3.006000000    -3.633000000     6.178000000
O     2.564000000     0.308000000    -5.397000000
H     2.453000000     0.870000000    -4.630000000
H     2.572000000     0.914000000    -6.138000000
O     2.155000000    -4.559000000    -0.104000000
H     2.595000000    -3.778000000    -0.439000000
H     1.375000000    -4.224000000     0.337000000
O     0.434000000    -4.119000000     3.181000000
H     1.344000000    -4.406000000     3.103000000
H     0.085000000    -4.186000000     2.292000000
O     5.280000000     1.079000000     0.035000000
H     6.190000000     0.949000000    -0.233000000
H     4.774000000     0.964000000    -0.770000000
O     1.789000000     2.603000000    -6.931000000
H     2.632000000     2.742000000    -7.363000000
H     1.145000000     2.667000000    -7.636000000
O     6.360000000     0.626000000    -6.074000000
H     7.243000000     0.693000000    -5.710000000
H     5.815000000     0.364000000    -5.332000000
O     6.676000000    -0.720000000     2.371000000
H     6.312000000    -0.045000000     1.797000000
H     7.624000000    -0.610000000     2.300000000
O     3.540000000     1.476000000     2.742000000
H     4.271000000     2.085000000     2.845000000
H     3.556000000     1.236000000     1.816000000
O    -2.486000000    -0.548000000    -4.821000000
H    -1.890000000    -1.268000000    -4.618000000
H    -2.863000000    -0.780000000    -5.670000000
O     3.244000000    -2.142000000    -0.858000000
H     2.814000000    -2.324000000    -1.693000000
H     3.467000000    -1.212000000    -0.900000000
O    -2.271000000    -3.792000000    -1.688000000
H    -2.810000000    -3.056000000    -1.977000000
H    -2.757000000    -4.568000000    -1.966000000
O    -6.109000000     0.390000000     3.029000000
H    -6.825000000     0.929000000     3.366000000
H    -5.349000000     0.971000000     3.034000000
O    -0.652000000    -2.211000000    -3.791000000
H    -0.132000000    -1.429000000    -3.607000000
H    -0.855000000    -2.573000000    -2.928000000
O    -5.945000000    -2.575000000     2.664000000
H    -5.972000000    -1.619000000     2.633000000
H    -5.760000000    -2.839000000     1.763000000
O     7.544000000    -0.082000000    -1.001000000
H     8.096000000     0.050000000    -1.772000000
H     7.286000000    -1.002000000    -1.046000000
O    -4.148000000     2.229000000     2.975000000
H    -3.833000000     2.220000000     3.878000000
H    -4.169000000     3.156000000     2.737000000
O     2.411000000    -3.433000000    -3.347000000
H     2.026000000    -3.371000000    -4.221000000
H     1.757000000    -3.903000000    -2.829000000
O    -2.563000000    -6.085000000     0.642000000
H    -3.177000000    -5.752000000    -0.014000000
H    -1.911000000    -5.391000000     0.734000000
O    -5.706000000    -0.284000000    -0.621000000
H    -6.242000000    -0.045000000     0.135000000
H    -5.573000000    -1.227000000    -0.531000000
O    -2.461000000     2.047000000    -3.732000000
H    -2.610000000     1.190000000    -4.131000000
H    -1.535000000     2.229000000    -3.894000000
O     5.636000000     3.312000000    -5.497000000
H     5.631000000     2.746000000    -6.270000000
H     4.716000000     3.374000000    -5.240000000
O     4.803000000    -3.111000000    -4.598000000
H     4.962000000    -2.168000000    -4.545000000
H     4.067000000    -3.263000000    -4.006000000
O    -1.760000000    -5.622000000     4.667000000
H    -0.971000000    -5.388000000     4.179000000
H    -1.436000000    -5.942000000     5.509000000
O    -4.021000000    -1.648000000    -2.750000000
H    -3.545000000    -1.217000000    -3.460000000
H    -4.360000000    -0.928000000    -2.218000000
O     6.347000000     2.864000000    -2.445000000
H     7.084000000     3.473000000    -2.467000000
H     6.552000000     2.215000000    -3.118000000
O    -1.553000000    -2.124000000     6.089000000
H    -1.292000000    -1.564000000     6.820000000
H    -0.727000000    -2.454000000     5.734000000
O    -4.240000000     2.155000000     0.222000000
H    -4.361000000     1.311000000    -0.213000000
H    -4.057000000     1.930000000     1.134000000
O    -0.686000000    -3.578000000     0.806000000
H    -1.245000000    -2.837000000     1.042000000
H    -0.725000000    -3.612000000    -0.150000000
O     6.451000000     4.207000000     0.212000000
H     6.169000000     3.685000000    -0.539000000
H     6.808000000     5.007000000    -0.173000000
