144
-2835.98227
O     2.290000000     4.389000000    -2.692000000
H     2.243000000     3.459000000    -2.471000000
H     3.115000000     4.685000000    -2.307000000
O     4.214000000    -0.441000000    -4.623000000
H     4.427000000    -0.346000000    -3.695000000
H     3.338000000    -0.828000000    -4.629000000
O    -3.353000000    -1.288000000     5.843000000
H    -3.645000000    -0.474000000     5.433000000
H    -2.635000000    -1.592000000     5.289000000
O     0.670000000     2.312000000    -5.010000000
H     0.566000000     3.261000000    -4.941000000
H     1.315000000     2.092000000    -4.339000000
O     0.911000000     3.313000000     1.258000000
H     1.858000000     3.351000000     1.127000000
H     0.619000000     2.598000000     0.692000000
O     4.753000000     2.942000000    -2.501000000
H     4.432000000     2.314000000    -1.855000000
H     4.347000000     2.669000000    -3.324000000
O     7.079000000     1.532000000    -3.796000000
H     6.934000000     1.454000000    -4.739000000
H     6.570000000     2.301000000    -3.538000000
O     4.281000000     1.431000000     4.752000000
H     4.739000000     1.196000000     3.945000000
H     3.910000000     0.607000000     5.065000000
O    -1.510000000     0.974000000     7.198000000
H    -1.525000000     0.245000000     6.577000000
H    -1.035000000     0.632000000     7.956000000
O     0.146000000     4.999000000    -5.784000000
H    -0.622000000     5.186000000    -6.325000000
H     0.880000000     5.008000000    -6.399000000
O    -3.671000000    -3.877000000     3.633000000
H    -2.773000000    -3.680000000     3.899000000
H    -3.950000000    -3.107000000     3.138000000
O     3.178000000    -4.330000000     0.570000000
H     3.367000000    -4.948000000    -0.136000000
H     2.558000000    -3.710000000     0.187000000
O    -1.493000000     1.419000000    -6.318000000
H    -0.735000000     1.695000000    -5.803000000
H    -1.268000000     1.650000000    -7.219000000
O     1.513000000    -4.909000000     2.734000000
H     2.076000000    -4.703000000     1.987000000
H     0.650000000    -5.060000000     2.348000000
O    -2.341000000     3.169000000     3.064000000
H    -1.648000000     2.665000000     3.493000000
H    -2.237000000     4.057000000     3.406000000
O    -0.119000000     5.720000000    -3.220000000
H     0.093000000     5.405000000    -4.098000000
H     0.668000000     5.543000000    -2.705000000
O     1.009000000    -3.970000000    -0.919000000
H     0.615000000    -4.729000000    -1.350000000
H     0.281000000    -3.361000000    -0.794000000
O    -0.329000000    -0.617000000     4.642000000
H    -0.336000000     0.254000000     4.245000000
H     0.430000000    -0.607000000     5.225000000
O     4.221000000     2.555000000     1.407000000
H     4.588000000     3.185000000     0.788000000
H     4.477000000     1.700000000     1.060000000
O    -0.576000000    -2.106000000    -2.665000000
H    -1.311000000    -1.718000000    -2.189000000
H    -0.343000000    -1.449000000    -3.321000000
O     3.727000000     2.280000000    -5.017000000
H     3.223000000     2.384000000    -5.823000000
H     3.925000000     1.344000000    -4.978000000
O     6.595000000     0.596000000     3.257000000
H     6.392000000     0.216000000     2.403000000
H     7.532000000     0.441000000     3.373000000
O     2.600000000     4.289000000     3.503000000
H     1.794000000     4.154000000     3.006000000
H     3.268000000     3.811000000     3.011000000
O    -4.772000000     0.999000000     5.286000000
H    -4.618000000     1.739000000     5.873000000
H    -4.880000000     1.397000000     4.422000000
O    -3.012000000    -0.843000000    -5.376000000
H    -2.202000000    -1.111000000    -4.940000000
H    -2.787000000    -0.022000000    -5.814000000
O     4.808000000    -1.144000000    -1.507000000
H     4.152000000    -1.824000000    -1.663000000
H     4.297000000    -0.362000000    -1.297000000
O    -4.457000000    -4.192000000     0.363000000
H    -4.419000000    -3.297000000     0.701000000
H    -5.391000000    -4.362000000     0.242000000
O    -7.565000000    -0.559000000     1.744000000
H    -8.190000000    -0.753000000     1.046000000
H    -7.775000000    -1.186000000     2.436000000
O     0.116000000    -0.389000000    -4.447000000
H     0.464000000     0.463000000    -4.183000000
H     0.448000000    -0.519000000    -5.335000000
O    -5.211000000    -0.521000000    -3.621000000
H    -4.500000000    -0.622000000    -4.254000000
H    -5.542000000     0.364000000    -3.772000000
O     7.238000000    -0.809000000    -2.580000000
H     7.033000000     0.028000000    -2.996000000
H     6.494000000    -0.978000000    -2.002000000
O    -5.047000000     3.009000000     3.573000000
H    -4.113000000     3.199000000     3.485000000
H    -5.470000000     3.589000000     2.939000000
O     2.454000000    -2.581000000    -3.072000000
H     1.596000000    -2.218000000    -3.288000000
H     2.270000000    -3.269000000    -2.432000000
O     1.836000000    -0.544000000     6.280000000
H     2.734000000    -0.754000000     6.022000000
H     1.530000000    -1.327000000     6.738000000
O    -5.324000000    -1.481000000    -0.003000000
H    -5.602000000    -0.792000000     0.601000000
H    -6.017000000    -1.516000000    -0.662000000
O    -4.890000000     1.773000000    -1.013000000
H    -5.558000000     1.742000000    -0.328000000
H    -4.151000000     2.226000000    -0.606000000
O     3.905000000     5.160000000    -5.058000000
H     3.941000000     4.313000000    -4.614000000
H     3.822000000     5.798000000    -4.349000000
O    -1.002000000    -3.253000000     4.469000000
H    -0.425000000    -3.969000000     4.735000000
H    -0.447000000    -2.474000000     4.501000000
O     6.353000000    -0.569000000     0.672000000
H     7.028000000    -1.222000000     0.860000000
H     5.918000000    -0.893000000    -0.116000000
O    -6.083000000     2.387000000    -3.591000000
H    -5.740000000     2.639000000    -2.733000000
H    -5.304000000     2.189000000    -4.111000000
O    -3.261000000    -1.687000000    -1.979000000
H    -3.905000000    -1.204000000    -2.496000000
H    -3.708000000    -1.872000000    -1.152000000
O    -6.016000000     1.698000000     1.429000000
H    -5.853000000     2.146000000     2.259000000
H    -6.644000000     1.010000000     1.648000000
O    -0.371000000     2.585000000     4.802000000
H    -0.626000000     2.521000000     5.723000000
H     0.584000000     2.647000000     4.822000000
O    -3.648000000    -3.724000000    -3.892000000
H    -4.549000000    -3.905000000    -3.626000000
H    -3.350000000    -3.046000000    -3.286000000
O    -2.664000000     3.050000000     0.271000000
H    -1.773000000     2.879000000    -0.034000000
H    -2.616000000     2.941000000     1.221000000
O    -2.171000000    -5.006000000    -1.071000000
H    -2.933000000    -4.732000000    -0.560000000
H    -2.202000000    -4.462000000    -1.858000000
O    -1.410000000    -5.446000000     1.795000000
H    -2.013000000    -5.231000000     1.084000000
H    -1.832000000    -6.172000000     2.256000000
O     5.320000000     4.475000000    -0.119000000
H     5.335000000     5.418000000    -0.282000000
H     5.336000000     4.080000000    -0.991000000
