144
-2799.49005
O     2.222000000     4.236000000    -1.638000000
H     2.791000000     3.484000000    -1.475000000
H     2.817000000     4.986000000    -1.658000000
O    -0.995000000     3.697000000     0.196000000
H    -0.733000000     3.591000000     1.111000000
H    -0.670000000     2.909000000    -0.239000000
O    -3.373000000     4.262000000     2.223000000
H    -3.278000000     4.817000000     1.449000000
H    -2.506000000     3.875000000     2.347000000
O     4.723000000    -1.409000000    -3.878000000
H     4.292000000    -1.000000000    -3.127000000
H     4.098000000    -2.066000000    -4.184000000
O     0.742000000    -2.131000000     5.722000000
H     1.415000000    -1.551000000     5.366000000
H     1.143000000    -2.514000000     6.502000000
O    -2.644000000     1.381000000     5.093000000
H    -3.178000000     1.477000000     5.881000000
H    -1.742000000     1.386000000     5.413000000
O     1.042000000     1.929000000    -4.609000000
H     1.683000000     1.843000000    -5.315000000
H     1.501000000     1.616000000    -3.829000000
O     4.994000000     5.061000000    -2.550000000
H     5.802000000     4.919000000    -2.055000000
H     4.751000000     4.191000000    -2.866000000
O     1.441000000     1.657000000     2.564000000
H     0.905000000     0.870000000     2.469000000
H     2.343000000     1.338000000     2.530000000
O     4.611000000     2.501000000    -3.211000000
H     4.045000000     1.763000000    -2.987000000
H     5.497000000     2.188000000    -3.027000000
O    -6.761000000    -2.023000000    -0.880000000
H    -7.159000000    -2.458000000    -0.126000000
H    -7.369000000    -2.190000000    -1.601000000
O     2.390000000     0.097000000     5.477000000
H     3.021000000     0.349000000     4.804000000
H     2.919000000    -0.041000000     6.263000000
O     3.400000000    -2.610000000    -6.094000000
H     3.792000000    -2.054000000    -6.768000000
H     2.894000000    -2.006000000    -5.550000000
O    -2.955000000     2.941000000    -3.621000000
H    -2.328000000     3.660000000    -3.545000000
H    -3.143000000     2.690000000    -2.717000000
O     5.962000000    -1.928000000     2.458000000
H     5.471000000    -1.308000000     1.918000000
H     6.866000000    -1.618000000     2.415000000
O    -0.577000000     3.509000000     2.964000000
H    -1.125000000     3.212000000     3.690000000
H     0.068000000     2.811000000     2.851000000
O     4.353000000    -4.602000000    -1.957000000
H     4.428000000    -5.373000000    -1.396000000
H     3.519000000    -4.204000000    -1.708000000
O     4.237000000    -4.157000000     2.610000000
H     3.520000000    -3.827000000     2.069000000
H     4.809000000    -3.401000000     2.736000000
O     0.012000000     1.730000000     5.788000000
H    -0.119000000     1.655000000     6.734000000
H     0.751000000     1.152000000     5.602000000
O    -4.528000000    -3.525000000     6.018000000
H    -3.750000000    -3.143000000     6.424000000
H    -4.324000000    -3.548000000     5.083000000
O     1.782000000    -1.217000000    -4.539000000
H     1.054000000    -1.519000000    -3.996000000
H     2.096000000    -0.426000000    -4.101000000
O     1.315000000    -4.259000000     0.829000000
H     1.505000000    -3.940000000    -0.054000000
H     0.426000000    -3.953000000     1.008000000
O    -2.588000000     5.623000000    -0.808000000
H    -3.066000000     5.198000000    -1.520000000
H    -2.046000000     4.928000000    -0.435000000
O     0.807000000    -5.670000000     3.659000000
H     1.614000000    -6.130000000     3.887000000
H     1.038000000    -5.146000000     2.892000000
O     5.213000000    -0.636000000     0.198000000
H     5.963000000    -1.158000000    -0.087000000
H     4.608000000    -0.659000000    -0.544000000
O     3.124000000     1.292000000    -6.072000000
H     3.844000000     1.143000000    -5.459000000
H     3.533000000     1.249000000    -6.937000000
O     6.720000000    -0.494000000    -5.209000000
H     6.656000000    -0.768000000    -6.124000000
H     6.047000000    -1.005000000    -4.759000000
O     4.068000000     1.005000000     2.934000000
H     4.693000000     0.830000000     3.637000000
H     4.274000000     1.895000000     2.647000000
O    -0.058000000     4.053000000    -3.211000000
H     0.098000000     3.341000000    -3.831000000
H     0.786000000     4.182000000    -2.778000000
O     2.350000000     4.119000000     1.351000000
H     3.216000000     3.827000000     1.065000000
H     2.059000000     3.444000000     1.963000000
O     0.169000000    -0.970000000    -6.740000000
H     0.949000000    -0.689000000    -6.261000000
H     0.002000000    -1.858000000    -6.425000000
O     1.945000000    -3.250000000    -1.824000000
H     1.061000000    -2.900000000    -1.938000000
H     2.511000000    -2.478000000    -1.832000000
O    -6.166000000    -0.267000000     3.514000000
H    -5.985000000     0.053000000     4.398000000
H    -6.182000000     0.523000000     2.973000000
O    -0.538000000    -2.261000000    -2.061000000
H    -1.367000000    -2.442000000    -2.504000000
H    -0.739000000    -1.541000000    -1.462000000
O    -4.760000000    -2.929000000     3.109000000
H    -5.316000000    -2.160000000     3.236000000
H    -5.239000000    -3.469000000     2.480000000
O     6.437000000    -2.833000000    -1.009000000
H     7.244000000    -2.958000000    -1.509000000
H     5.798000000    -3.400000000    -1.440000000
O    -5.834000000     3.821000000     1.093000000
H    -4.991000000     3.583000000     1.479000000
H    -6.177000000     4.503000000     1.669000000
O     1.520000000    -4.711000000    -4.114000000
H     1.835000000    -4.171000000    -3.389000000
H     1.517000000    -5.602000000    -3.765000000
O    -5.231000000     0.698000000     0.910000000
H    -6.183000000     0.725000000     1.005000000
H    -5.022000000    -0.234000000     0.858000000
O    -0.505000000     1.833000000    -7.057000000
H    -0.452000000     0.917000000    -7.327000000
H    -0.365000000     1.813000000    -6.110000000
O     3.862000000     4.223000000    -5.369000000
H     4.498000000     3.944000000    -6.028000000
H     3.946000000     3.577000000    -4.667000000
O     5.541000000    -4.185000000    -4.351000000
H     4.839000000    -3.736000000    -4.822000000
H     5.169000000    -4.372000000    -3.489000000
O    -1.484000000    -4.013000000     4.492000000
H    -1.400000000    -3.339000000     5.167000000
H    -0.695000000    -4.547000000     4.587000000
O     6.787000000     0.831000000    -2.677000000
H     7.731000000     0.975000000    -2.606000000
H     6.699000000     0.148000000    -3.342000000
O    -2.008000000    -1.325000000     5.876000000
H    -2.344000000    -0.561000000     5.408000000
H    -1.058000000    -1.208000000     5.876000000
O    -4.744000000     2.375000000    -1.226000000
H    -4.658000000     1.512000000    -0.821000000
H    -4.967000000     2.958000000    -0.500000000
O    -1.807000000    -3.982000000     1.735000000
H    -1.565000000    -4.139000000     2.648000000
H    -2.456000000    -3.280000000     1.777000000
O     6.425000000     1.630000000    -0.048000000
H     5.905000000     0.890000000     0.266000000
H     6.445000000     1.522000000    -0.999000000
