144
-2840.71381
O    -2.549000000     3.366000000     3.768000000
H    -1.972000000     3.270000000     3.010000000
H    -3.416000000     3.517000000     3.391000000
O     2.594000000    -5.867000000    -0.844000000
H     3.034000000    -6.696000000    -1.035000000
H     1.757000000    -5.929000000    -1.305000000
O     3.105000000    -2.510000000    -3.603000000
H     3.679000000    -1.905000000    -3.133000000
H     3.116000000    -2.198000000    -4.507000000
O    -0.023000000    -7.170000000     2.023000000
H    -0.683000000    -7.073000000     1.336000000
H     0.363000000    -6.298000000     2.109000000
O    -2.275000000     4.755000000     0.561000000
H    -3.004000000     4.600000000     1.163000000
H    -1.547000000     4.257000000     0.934000000
O     2.113000000    -5.167000000    -3.545000000
H     2.465000000    -4.332000000    -3.238000000
H     1.693000000    -4.958000000    -4.380000000
O     4.629000000    -1.767000000    -0.013000000
H     4.309000000    -1.037000000     0.517000000
H     4.144000000    -2.527000000     0.308000000
O    -1.898000000     3.737000000    -3.223000000
H    -1.319000000     3.238000000    -2.647000000
H    -2.779000000     3.543000000    -2.904000000
O     2.832000000    -4.833000000     2.808000000
H     1.902000000    -4.607000000     2.810000000
H     2.857000000    -5.741000000     2.504000000
O    -3.637000000    -3.585000000    -5.047000000
H    -2.987000000    -3.221000000    -5.647000000
H    -4.306000000    -3.962000000    -5.618000000
O     0.796000000     5.691000000     2.687000000
H     0.869000000     4.820000000     2.299000000
H     1.653000000     6.091000000     2.542000000
O    -0.588000000    -6.138000000    -0.679000000
H    -0.613000000    -6.910000000    -1.244000000
H    -0.790000000    -5.407000000    -1.263000000
O    -0.255000000     2.103000000    -2.124000000
H    -0.268000000     1.480000000    -1.397000000
H     0.617000000     2.497000000    -2.086000000
O     3.805000000     3.500000000     2.210000000
H     4.328000000     2.762000000     1.897000000
H     2.908000000     3.283000000     1.956000000
O    -1.298000000    -1.953000000    -5.887000000
H    -0.957000000    -1.582000000    -6.701000000
H    -1.367000000    -1.206000000    -5.293000000
O     1.871000000     0.429000000    -4.888000000
H     1.807000000     1.263000000    -5.355000000
H     2.611000000     0.545000000    -4.292000000
O    -4.568000000     4.235000000     1.849000000
H    -5.182000000     4.604000000     2.484000000
H    -5.119000000     3.745000000     1.240000000
O     4.000000000     0.051000000     2.098000000
H     4.691000000    -0.253000000     2.687000000
H     3.545000000     0.732000000     2.594000000
O    -0.501000000     4.712000000     4.905000000
H    -1.325000000     4.248000000     4.757000000
H    -0.158000000     4.878000000     4.027000000
O     4.878000000     2.618000000     5.069000000
H     4.137000000     2.965000000     4.572000000
H     4.977000000     3.222000000     5.805000000
O     0.404000000     5.953000000    -1.104000000
H     1.132000000     5.441000000    -1.455000000
H    -0.212000000     5.298000000    -0.775000000
O    -4.255000000    -3.101000000    -1.048000000
H    -5.043000000    -3.621000000    -0.889000000
H    -4.572000000    -2.201000000    -1.121000000
O    -2.510000000    -2.855000000     1.134000000
H    -2.568000000    -1.904000000     1.040000000
H    -3.178000000    -3.195000000     0.538000000
O    -2.771000000     0.786000000     4.771000000
H    -2.506000000     1.679000000     4.550000000
H    -2.036000000     0.242000000     4.489000000
O    -2.515000000    -7.332000000    -3.449000000
H    -2.541000000    -6.495000000    -2.986000000
H    -1.750000000    -7.781000000    -3.089000000
O    -3.650000000    -4.302000000     3.030000000
H    -3.273000000    -4.170000000     3.899000000
H    -3.050000000    -3.851000000     2.436000000
O     4.414000000     1.203000000    -3.521000000
H     4.833000000     0.457000000    -3.092000000
H     4.606000000     1.946000000    -2.949000000
O     4.607000000     3.865000000    -2.142000000
H     4.730000000     3.375000000    -1.329000000
H     5.367000000     4.446000000    -2.188000000
O    -4.122000000     3.708000000    -1.653000000
H    -3.358000000     4.021000000    -1.170000000
H    -4.578000000     3.136000000    -1.035000000
O     3.074000000     6.845000000     1.730000000
H     3.115000000     7.732000000     2.087000000
H     3.078000000     6.969000000     0.781000000
O     1.869000000     3.949000000    -2.593000000
H     2.811000000     3.822000000    -2.479000000
H     1.755000000     4.056000000    -3.537000000
O    -0.084000000    -4.429000000     1.759000000
H    -0.921000000    -3.964000000     1.773000000
H     0.053000000    -4.646000000     0.837000000
O    -4.695000000     1.317000000    -0.296000000
H    -5.642000000     1.406000000    -0.187000000
H    -4.461000000     0.565000000     0.247000000
O     5.475000000    -1.163000000    -2.544000000
H     6.005000000    -1.894000000    -2.864000000
H     5.223000000    -1.420000000    -1.657000000
O     3.091000000    -1.663000000    -6.119000000
H     2.661000000    -0.902000000    -5.729000000
H     2.689000000    -1.748000000    -6.984000000
O     5.333000000     2.250000000     0.041000000
H     6.032000000     2.054000000     0.665000000
H     5.723000000     2.079000000    -0.817000000
O     0.759000000    -4.073000000    -5.902000000
H     0.405000000    -4.462000000    -6.701000000
H     0.111000000    -3.416000000    -5.648000000
O    -2.418000000     7.477000000    -0.520000000
H    -3.362000000     7.637000000    -0.528000000
H    -2.336000000     6.535000000    -0.367000000
O    -0.968000000     7.744000000     2.492000000
H    -1.150000000     7.974000000     1.581000000
H    -0.369000000     7.000000000     2.436000000
O    -0.205000000    -0.439000000     3.766000000
H     0.043000000    -0.981000000     3.017000000
H     0.420000000     0.286000000     3.754000000
O    -4.708000000    -0.754000000     1.269000000
H    -4.851000000    -1.095000000     2.151000000
H    -5.533000000    -0.917000000     0.812000000
O    -5.612000000    -2.325000000    -3.562000000
H    -5.145000000    -1.600000000    -3.147000000
H    -4.990000000    -2.680000000    -4.196000000
O    -2.521000000    -4.676000000    -2.810000000
H    -3.018000000    -4.281000000    -2.093000000
H    -2.849000000    -4.242000000    -3.597000000
O     1.912000000     1.558000000     4.157000000
H     1.728000000     2.099000000     4.924000000
H     1.730000000     2.129000000     3.410000000
O    -4.034000000    -0.383000000    -2.344000000
H    -4.421000000     0.186000000    -3.009000000
H    -3.941000000     0.178000000    -1.574000000
O    -0.778000000     0.217000000    -4.332000000
H    -0.749000000     0.720000000    -3.517000000
H     0.121000000    -0.085000000    -4.459000000
O     1.806000000    -1.854000000     2.835000000
H     2.635000000    -1.518000000     2.493000000
H     1.724000000    -2.726000000     2.449000000
O     4.095000000    -4.269000000     0.546000000
H     3.562000000    -4.903000000     0.067000000
H     3.939000000    -4.473000000     1.468000000
