144
-2851.63196
O    -1.530000000     3.550000000     3.444000000
H    -0.850000000     3.617000000     2.774000000
H    -2.322000000     3.315000000     2.961000000
O     3.473000000    -5.779000000    -0.578000000
H     3.202000000    -6.690000000    -0.465000000
H     2.983000000    -5.477000000    -1.344000000
O     2.939000000    -2.880000000    -4.360000000
H     2.667000000    -1.998000000    -4.107000000
H     2.633000000    -2.974000000    -5.263000000
O     2.763000000    -1.819000000     3.645000000
H     3.082000000    -2.718000000     3.565000000
H     1.912000000    -1.827000000     3.208000000
O    -0.116000000    -6.352000000     0.296000000
H    -0.030000000    -6.207000000    -0.646000000
H    -0.505000000    -7.223000000     0.370000000
O    -1.639000000     4.661000000     0.153000000
H    -2.359000000     4.070000000    -0.065000000
H    -0.959000000     4.090000000     0.510000000
O    -2.566000000    -1.886000000     2.967000000
H    -1.633000000    -1.949000000     2.760000000
H    -3.008000000    -2.184000000     2.172000000
O     2.657000000    -0.213000000     5.839000000
H     2.249000000     0.503000000     5.352000000
H     2.568000000    -0.974000000     5.265000000
O     1.115000000    -5.309000000    -2.478000000
H     1.100000000    -4.399000000    -2.774000000
H     0.603000000    -5.782000000    -3.134000000
O     4.719000000     5.940000000    -0.335000000
H     4.435000000     6.208000000    -1.210000000
H     3.912000000     5.909000000     0.179000000
O     4.604000000    -1.731000000    -0.018000000
H     4.850000000    -1.252000000     0.774000000
H     4.209000000    -2.541000000     0.306000000
O    -1.917000000    -4.875000000    -5.509000000
H    -1.469000000    -4.042000000    -5.367000000
H    -2.208000000    -5.142000000    -4.638000000
O     0.549000000     6.089000000     2.478000000
H     0.407000000     5.346000000     1.892000000
H     1.244000000     6.595000000     2.059000000
O    -1.359000000    -7.333000000    -2.145000000
H    -0.810000000    -7.362000000    -2.929000000
H    -2.066000000    -6.728000000    -2.370000000
O    -0.755000000     2.916000000    -2.292000000
H    -0.853000000     2.014000000    -1.984000000
H     0.185000000     3.085000000    -2.242000000
O    -0.091000000     5.856000000    -2.849000000
H     0.343000000     5.536000000    -3.640000000
H    -0.166000000     5.083000000    -2.289000000
O     4.490000000     3.570000000     2.249000000
H     4.883000000     2.743000000     2.529000000
H     3.574000000     3.352000000     2.072000000
O    -0.514000000    -2.576000000    -4.956000000
H     0.432000000    -2.689000000    -5.052000000
H    -0.620000000    -1.664000000    -4.682000000
O     2.209000000    -0.033000000    -4.706000000
H     2.811000000     0.121000000    -5.434000000
H     2.715000000     0.193000000    -3.925000000
O    -4.365000000     2.394000000     2.742000000
H    -4.693000000     1.818000000     2.052000000
H    -3.806000000     1.832000000     3.279000000
O     4.784000000     0.427000000     2.791000000
H     5.322000000     0.486000000     3.581000000
H     4.107000000    -0.213000000     3.011000000
O     0.747000000     4.449000000     4.863000000
H    -0.176000000     4.507000000     4.618000000
H     1.199000000     5.003000000     4.227000000
O     2.015000000     4.874000000    -0.417000000
H     2.020000000     4.279000000    -1.167000000
H     1.809000000     4.315000000     0.332000000
O    -4.393000000    -3.609000000    -1.805000000
H    -5.094000000    -4.002000000    -1.286000000
H    -4.720000000    -2.738000000    -2.030000000
O    -3.077000000    -0.184000000    -5.630000000
H    -3.151000000     0.411000000    -6.376000000
H    -2.142000000    -0.198000000    -5.427000000
O    -3.841000000    -2.843000000     0.780000000
H    -4.710000000    -2.452000000     0.871000000
H    -3.832000000    -3.202000000    -0.107000000
O    -3.082000000     0.509000000     4.259000000
H    -2.158000000     0.760000000     4.271000000
H    -3.092000000    -0.382000000     4.609000000
O    -3.223000000    -5.195000000     2.152000000
H    -2.743000000    -4.779000000     2.868000000
H    -3.527000000    -4.466000000     1.611000000
O     4.657000000     3.033000000    -0.764000000
H     4.546000000     2.460000000    -0.005000000
H     4.391000000     3.898000000    -0.453000000
O     3.983000000     0.390000000    -2.663000000
H     4.313000000    -0.267000000    -2.051000000
H     4.753000000     0.909000000    -2.895000000
O     2.462000000    -6.776000000     2.104000000
H     1.995000000    -5.974000000     1.869000000
H     1.969000000    -7.474000000     1.673000000
O    -3.409000000     2.536000000    -0.714000000
H    -3.620000000     2.039000000    -1.504000000
H    -3.262000000     1.869000000    -0.044000000
O     4.444000000     6.396000000     2.561000000
H     4.443000000     5.457000000     2.377000000
H     5.163000000     6.518000000     3.180000000
O     1.903000000     3.017000000    -2.483000000
H     2.547000000     2.312000000    -2.409000000
H     1.891000000     3.233000000    -3.415000000
O     0.759000000    -4.270000000     2.325000000
H     0.693000000    -4.720000000     3.167000000
H     0.405000000    -4.894000000     1.691000000
O    -4.564000000     0.476000000     0.721000000
H    -5.206000000     0.537000000     0.013000000
H    -4.854000000    -0.273000000     1.242000000
O     5.761000000    -1.789000000    -2.450000000
H     6.319000000    -1.023000000    -2.589000000
H     5.541000000    -1.759000000    -1.519000000
O    -3.796000000     0.791000000    -2.842000000
H    -3.265000000     0.312000000    -3.478000000
H    -4.321000000     1.392000000    -3.371000000
O    -0.188000000    -6.570000000    -4.501000000
H     0.194000000    -7.187000000    -5.126000000
H    -0.838000000    -6.085000000    -5.010000000
O    -2.048000000     7.296000000    -0.482000000
H    -2.734000000     7.239000000    -1.148000000
H    -1.909000000     6.391000000    -0.203000000
O    -0.445000000     0.330000000     4.335000000
H    -0.418000000    -0.266000000     3.586000000
H     0.410000000     0.760000000     4.331000000
O    -6.242000000    -1.535000000     1.584000000
H    -6.499000000    -1.955000000     2.405000000
H    -7.065000000    -1.397000000     1.117000000
O    -3.458000000    -5.617000000    -3.140000000
H    -3.747000000    -4.817000000    -2.700000000
H    -4.263000000    -6.113000000    -3.288000000
O     1.949000000     1.830000000     4.147000000
H     1.814000000     2.717000000     4.478000000
H     2.455000000     1.948000000     3.343000000
O    -5.460000000    -1.260000000    -2.091000000
H    -4.977000000    -0.555000000    -2.522000000
H    -6.381000000    -1.029000000    -2.213000000
O    -0.520000000     0.177000000    -4.416000000
H    -0.877000000     1.015000000    -4.710000000
H     0.411000000     0.350000000    -4.278000000
O     0.147000000    -1.659000000     2.329000000
H     0.275000000    -1.362000000     1.428000000
H     0.422000000    -2.576000000     2.321000000
O     1.028000000     7.534000000    -0.088000000
H     0.200000000     7.864000000    -0.439000000
H     1.114000000     6.658000000    -0.462000000
