144
-2788.83559
O    -3.546000000    -0.086000000     4.056000000
H    -2.956000000    -0.310000000     4.775000000
H    -3.236000000    -0.612000000     3.319000000
O    -2.000000000     2.280000000     4.645000000
H    -2.564000000     1.543000000     4.879000000
H    -2.173000000     2.938000000     5.319000000
O     5.176000000     0.554000000    -4.112000000
H     5.365000000     0.810000000    -5.014000000
H     4.435000000     1.104000000    -3.857000000
O    -3.185000000     3.860000000    -3.108000000
H    -2.802000000     3.507000000    -2.305000000
H    -2.457000000     4.302000000    -3.545000000
O     4.247000000     3.410000000     1.552000000
H     3.595000000     3.668000000     2.204000000
H     4.490000000     2.517000000     1.796000000
O     1.683000000    -2.587000000     0.063000000
H     1.743000000    -2.657000000     1.015000000
H     1.510000000    -1.659000000    -0.099000000
O    -7.166000000    -3.915000000     2.322000000
H    -7.381000000    -4.576000000     2.979000000
H    -6.235000000    -4.048000000     2.144000000
O    -0.446000000    -4.478000000    -0.019000000
H     0.427000000    -4.093000000     0.060000000
H    -0.829000000    -4.384000000     0.853000000
O     6.335000000     5.321000000    -0.820000000
H     5.381000000     5.388000000    -0.815000000
H     6.509000000     4.384000000    -0.917000000
O    -4.444000000     1.811000000     0.735000000
H    -3.512000000     1.860000000     0.522000000
H    -4.762000000     2.707000000     0.625000000
O    -0.455000000    -1.569000000    -4.766000000
H    -0.707000000    -1.990000000    -3.944000000
H    -1.283000000    -1.423000000    -5.224000000
O    -2.955000000    -6.148000000     1.447000000
H    -3.862000000    -6.028000000     1.166000000
H    -2.865000000    -5.582000000     2.214000000
O    -5.762000000    -0.437000000     1.844000000
H    -5.751000000     0.400000000     1.379000000
H    -4.899000000    -0.815000000     1.677000000
O     2.617000000     5.032000000     2.965000000
H     2.324000000     4.418000000     3.638000000
H     1.808000000     5.352000000     2.565000000
O     4.772000000    -2.123000000     3.722000000
H     4.516000000    -1.210000000     3.853000000
H     4.807000000    -2.228000000     2.771000000
O    -2.341000000    -6.533000000    -2.190000000
H    -2.978000000    -7.062000000    -1.710000000
H    -2.798000000    -5.711000000    -2.366000000
O     1.161000000    -0.907000000     4.740000000
H     1.297000000    -1.027000000     3.800000000
H     0.605000000    -1.643000000     4.997000000
O    -4.613000000    -0.863000000    -2.658000000
H    -5.051000000    -1.509000000    -3.212000000
H    -4.188000000    -1.382000000    -1.975000000
O     2.152000000    -3.589000000    -2.503000000
H     1.850000000    -3.493000000    -1.600000000
H     2.401000000    -2.704000000    -2.768000000
O    -4.675000000    -3.833000000     1.347000000
H    -4.442000000    -3.076000000     0.809000000
H    -4.896000000    -4.517000000     0.714000000
O    -0.199000000     5.349000000     1.362000000
H    -0.591000000     4.476000000     1.380000000
H    -0.942000000     5.948000000     1.430000000
O    -1.116000000    -3.359000000    -2.762000000
H    -2.005000000    -3.377000000    -2.407000000
H    -0.632000000    -3.988000000    -2.228000000
O     7.233000000    -0.308000000     0.753000000
H     8.117000000    -0.470000000     0.424000000
H     7.365000000     0.172000000     1.570000000
O    -6.147000000    -2.062000000     4.179000000
H    -5.491000000    -1.582000000     3.674000000
H    -6.622000000    -2.576000000     3.526000000
O     6.343000000     2.517000000    -1.414000000
H     5.969000000     1.637000000    -1.366000000
H     6.138000000     2.817000000    -2.299000000
O     1.072000000    -3.353000000     2.705000000
H     0.469000000    -3.408000000     3.446000000
H     1.762000000    -3.984000000     2.912000000
O     3.228000000     2.528000000    -3.945000000
H     3.668000000     3.368000000    -3.816000000
H     2.420000000     2.749000000    -4.407000000
O    -2.600000000    -3.392000000     3.383000000
H    -3.319000000    -3.783000000     3.879000000
H    -3.033000000    -2.856000000     2.718000000
O     5.386000000    -0.955000000    -1.423000000
H     5.495000000    -0.458000000    -2.234000000
H     6.233000000    -0.883000000    -0.983000000
O     1.021000000     0.945000000    -5.384000000
H     0.331000000     0.483000000    -4.907000000
H     1.320000000     0.315000000    -6.040000000
O     3.678000000     5.312000000    -1.330000000
H     2.885000000     5.107000000    -0.835000000
H     3.400000000     5.297000000    -2.245000000
O     0.139000000     5.308000000    -1.725000000
H     0.282000000     5.009000000    -0.826000000
H     0.150000000     6.263000000    -1.664000000
O    -6.008000000     0.532000000    -1.039000000
H    -5.322000000     0.958000000    -0.524000000
H    -5.537000000     0.086000000    -1.743000000
O     2.304000000    -1.172000000    -3.455000000
H     1.477000000    -1.174000000    -3.937000000
H     2.299000000    -0.344000000    -2.975000000
O    -7.707000000    -1.905000000     0.346000000
H    -7.184000000    -1.139000000     0.581000000
H    -7.532000000    -2.538000000     1.042000000
O    -5.389000000     1.909000000     3.723000000
H    -5.241000000     2.210000000     2.827000000
H    -4.873000000     1.107000000     3.794000000
O    -1.784000000     2.519000000    -0.588000000
H    -1.436000000     1.628000000    -0.611000000
H    -1.669000000     2.799000000     0.320000000
O     4.746000000    -2.555000000    -4.284000000
H     3.939000000    -2.187000000    -4.643000000
H     5.158000000    -1.825000000    -3.822000000
O    -0.796000000    -2.886000000     5.253000000
H    -1.266000000    -3.028000000     6.074000000
H    -1.425000000    -3.126000000     4.572000000
O     4.859000000    -2.507000000     0.831000000
H     4.817000000    -2.039000000    -0.003000000
H     5.208000000    -3.369000000     0.604000000
O    -5.672000000    -5.897000000     0.045000000
H    -5.442000000    -6.585000000    -0.579000000
H    -6.501000000    -6.186000000     0.427000000
O    -1.801000000     3.054000000     2.033000000
H    -1.634000000     2.787000000     2.937000000
H    -2.558000000     3.637000000     2.090000000
O    -3.836000000    -4.085000000    -1.853000000
H    -4.780000000    -4.188000000    -1.979000000
H    -3.749000000    -3.276000000    -1.349000000
O    -3.030000000     0.537000000    -5.065000000
H    -2.730000000    -0.268000000    -5.486000000
H    -3.439000000     0.244000000    -4.251000000
O     6.596000000     4.644000000     2.105000000
H     5.879000000     4.060000000     1.860000000
H     6.896000000     5.016000000     1.276000000
O     3.898000000     1.341000000     4.341000000
H     4.140000000     1.610000000     5.227000000
H     2.983000000     1.609000000     4.251000000
O     1.010000000     2.943000000     4.659000000
H     0.395000000     2.230000000     4.488000000
H     0.454000000     3.690000000     4.880000000
O     1.645000000     2.988000000    -7.097000000
H     1.320000000     2.400000000    -6.416000000
H     2.466000000     2.589000000    -7.386000000
