144
-2823.33667
O    -3.484000000    -2.191000000     3.386000000
H    -3.272000000    -1.984000000     2.476000000
H    -2.921000000    -2.935000000     3.599000000
O    -5.384000000     0.269000000     4.153000000
H    -5.865000000     0.116000000     4.966000000
H    -4.479000000     0.406000000     4.434000000
O    -0.731000000     2.980000000    -1.147000000
H    -1.350000000     2.264000000    -1.294000000
H    -0.112000000     2.914000000    -1.874000000
O     6.087000000     0.620000000    -0.997000000
H     6.216000000     0.531000000    -1.941000000
H     5.798000000     1.525000000    -0.879000000
O    -5.833000000    -5.794000000    -1.125000000
H    -6.639000000    -5.670000000    -1.627000000
H    -5.180000000    -6.046000000    -1.778000000
O    -3.261000000     1.848000000    -2.281000000
H    -3.795000000     2.318000000    -2.920000000
H    -2.985000000     1.053000000    -2.738000000
O     1.905000000    -3.008000000    -0.110000000
H     1.130000000    -2.457000000     0.000000000
H     2.198000000    -3.188000000     0.784000000
O    -6.052000000    -3.008000000     3.870000000
H    -5.136000000    -2.747000000     3.772000000
H    -6.462000000    -2.275000000     4.329000000
O     2.004000000    -5.152000000    -1.979000000
H     1.880000000    -4.458000000    -1.332000000
H     1.967000000    -5.963000000    -1.471000000
O     4.514000000     0.317000000     2.965000000
H     3.571000000     0.205000000     2.844000000
H     4.593000000     1.084000000     3.532000000
O    -5.408000000    -0.028000000     0.796000000
H    -5.592000000     0.515000000     1.562000000
H    -4.570000000    -0.447000000     0.994000000
O    -2.640000000     3.597000000     4.872000000
H    -2.735000000     2.737000000     5.283000000
H    -2.204000000     3.417000000     4.039000000
O     2.827000000    -4.207000000    -4.373000000
H     2.357000000    -4.634000000    -3.657000000
H     2.737000000    -3.271000000    -4.195000000
O    -2.931000000    -6.049000000     2.216000000
H    -3.819000000    -6.148000000     2.559000000
H    -3.010000000    -5.385000000     1.532000000
O    -7.762000000    -1.147000000     0.535000000
H    -6.974000000    -0.606000000     0.500000000
H    -7.435000000    -2.039000000     0.656000000
O     1.403000000     4.470000000    -0.343000000
H     0.802000000     3.727000000    -0.297000000
H     1.635000000     4.533000000    -1.270000000
O    -3.471000000    -6.812000000    -1.878000000
H    -2.833000000    -6.744000000    -2.588000000
H    -3.337000000    -6.019000000    -1.358000000
O    -6.447000000     1.363000000    -3.024000000
H    -5.812000000     0.652000000    -2.937000000
H    -6.113000000     1.896000000    -3.745000000
O    -4.446000000    -3.600000000    -4.961000000
H    -4.903000000    -4.304000000    -5.422000000
H    -4.887000000    -3.544000000    -4.113000000
O     4.093000000    -1.663000000    -1.375000000
H     4.672000000    -1.351000000    -0.680000000
H     3.231000000    -1.719000000    -0.962000000
O    -5.687000000    -3.105000000     0.208000000
H    -5.018000000    -2.441000000     0.041000000
H    -5.670000000    -3.229000000     1.157000000
O     4.685000000     3.076000000    -1.808000000
H     4.857000000     3.928000000    -2.209000000
H     3.825000000     2.823000000    -2.143000000
O    -0.035000000    -0.187000000     5.416000000
H     0.113000000    -0.971000000     5.945000000
H     0.656000000     0.418000000     5.687000000
O    -3.016000000    -0.975000000    -5.306000000
H    -3.539000000    -1.003000000    -4.505000000
H    -3.215000000    -1.798000000    -5.751000000
O     0.983000000     3.630000000     4.624000000
H     0.632000000     4.295000000     5.217000000
H     0.503000000     3.761000000     3.806000000
O     0.309000000    -2.321000000    -5.809000000
H    -0.117000000    -1.975000000    -5.025000000
H     1.241000000    -2.328000000    -5.592000000
O     2.525000000    -1.633000000    -3.814000000
H     2.231000000    -0.722000000    -3.814000000
H     3.329000000    -1.626000000    -3.295000000
O     2.366000000    -3.311000000     2.656000000
H     3.161000000    -3.604000000     3.100000000
H     2.266000000    -2.397000000     2.923000000
O     1.403000000     3.393000000    -3.007000000
H     1.514000000     2.600000000    -3.530000000
H     1.113000000     4.055000000    -3.635000000
O     1.532000000     1.173000000    -4.538000000
H     0.653000000     0.822000000    -4.678000000
H     1.839000000     1.406000000    -5.414000000
O    -4.638000000    -1.006000000    -3.129000000
H    -4.020000000    -1.081000000    -2.402000000
H    -5.144000000    -1.818000000    -3.098000000
O     0.675000000     6.999000000     0.353000000
H     0.409000000     7.004000000     1.273000000
H     0.888000000     6.083000000     0.171000000
O     5.627000000    -1.717000000    -3.506000000
H     5.152000000    -1.751000000    -2.676000000
H     6.372000000    -1.142000000    -3.333000000
O     2.064000000     1.657000000     6.268000000
H     1.778000000     2.230000000     5.557000000
H     2.441000000     2.251000000     6.917000000
O    -4.930000000     2.825000000     0.043000000
H    -5.248000000     1.922000000     0.009000000
H    -3.996000000     2.757000000    -0.153000000
O    -1.079000000     0.603000000    -4.592000000
H    -1.675000000     0.036000000    -5.083000000
H    -1.280000000     1.486000000    -4.902000000
O     2.933000000     5.239000000     1.598000000
H     3.781000000     5.381000000     1.177000000
H     2.412000000     4.779000000     0.939000000
O    -0.933000000    -6.197000000    -3.145000000
H    -0.290000000    -6.285000000    -2.442000000
H    -1.233000000    -5.290000000    -3.083000000
O    -5.691000000    -5.596000000     3.253000000
H    -6.467000000    -6.040000000     3.594000000
H    -5.910000000    -4.665000000     3.293000000
O    -6.186000000    -3.360000000    -2.816000000
H    -6.256000000    -3.175000000    -1.880000000
H    -7.012000000    -3.790000000    -3.038000000
O    -0.892000000     3.757000000     2.524000000
H    -0.789000000     3.129000000     1.809000000
H    -1.299000000     4.521000000     2.116000000
O    -3.545000000    -4.757000000    -0.196000000
H    -3.345000000    -3.854000000    -0.440000000
H    -4.501000000    -4.789000000    -0.157000000
O    -2.147000000    -3.910000000    -2.906000000
H    -2.699000000    -3.676000000    -3.652000000
H    -2.369000000    -3.268000000    -2.233000000
O     4.117000000     4.657000000     4.296000000
H     4.232000000     5.601000000     4.185000000
H     3.631000000     4.382000000     3.519000000
O     5.714000000     3.639000000     0.662000000
H     5.618000000     4.562000000     0.431000000
H     5.588000000     3.171000000    -0.163000000
O     5.677000000    -1.469000000     0.956000000
H     5.969000000    -0.648000000     0.559000000
H     5.379000000    -1.220000000     1.831000000
O    -2.682000000     0.282000000     4.394000000
H    -1.771000000     0.006000000     4.499000000
H    -3.099000000    -0.442000000     3.928000000
O     2.182000000    -0.537000000     3.666000000
H     1.274000000    -0.517000000     3.966000000
H     2.701000000    -0.547000000     4.470000000
