144
-2820.42428
O    -4.746000000    -0.179000000     0.647000000
H    -4.378000000    -0.739000000    -0.037000000
H    -4.367000000     0.684000000     0.481000000
O    -4.485000000    -7.077000000     2.324000000
H    -3.806000000    -7.543000000     1.836000000
H    -4.092000000    -6.228000000     2.529000000
O    -5.188000000    -3.648000000    -0.277000000
H    -4.375000000    -3.212000000    -0.019000000
H    -4.945000000    -4.176000000    -1.037000000
O    -1.088000000     5.407000000     1.479000000
H    -1.670000000     5.231000000     0.740000000
H    -1.195000000     4.649000000     2.053000000
O     2.682000000    -1.513000000    -5.202000000
H     2.884000000    -0.727000000    -5.709000000
H     3.496000000    -1.714000000    -4.739000000
O    -6.421000000     0.580000000    -2.316000000
H    -5.590000000     0.119000000    -2.430000000
H    -6.952000000    -0.011000000    -1.783000000
O     2.891000000     5.525000000    -3.838000000
H     2.749000000     5.850000000    -4.726000000
H     2.213000000     5.952000000    -3.314000000
O    -3.810000000    -7.368000000    -1.628000000
H    -3.334000000    -6.581000000    -1.893000000
H    -3.312000000    -7.712000000    -0.887000000
O     1.898000000     0.470000000     4.517000000
H     2.516000000     0.445000000     5.247000000
H     2.169000000     1.228000000     3.999000000
O    -1.190000000    -3.935000000     3.788000000
H    -0.807000000    -3.208000000     4.279000000
H    -1.194000000    -3.635000000     2.879000000
O     1.239000000    -3.630000000    -3.837000000
H     1.673000000    -2.862000000    -4.207000000
H     1.375000000    -3.551000000    -2.893000000
O    -2.816000000    -4.765000000    -1.692000000
H    -2.673000000    -3.948000000    -1.213000000
H    -2.475000000    -4.590000000    -2.569000000
O     6.171000000     1.859000000     3.675000000
H     6.600000000     1.919000000     2.822000000
H     5.235000000     1.854000000     3.473000000
O    -3.006000000    -2.758000000    -5.602000000
H    -2.912000000    -1.811000000    -5.701000000
H    -3.319000000    -3.059000000    -6.455000000
O    -0.957000000     1.190000000     4.367000000
H    -0.030000000     1.073000000     4.575000000
H    -1.399000000     1.149000000     5.215000000
O    -0.085000000     3.401000000    -3.370000000
H    -0.922000000     3.734000000    -3.048000000
H    -0.321000000     2.809000000    -4.084000000
O    -7.013000000    -1.772000000    -1.003000000
H    -6.485000000    -2.563000000    -0.897000000
H    -7.768000000    -2.056000000    -1.518000000
O     4.128000000    -2.066000000     1.890000000
H     3.189000000    -2.226000000     1.984000000
H     4.391000000    -1.689000000     2.730000000
O     1.750000000    -3.475000000     0.925000000
H     0.898000000    -3.087000000     1.126000000
H     1.946000000    -3.176000000     0.037000000
O    -0.246000000    -6.081000000    -0.328000000
H    -0.864000000    -5.351000000    -0.353000000
H     0.152000000    -6.029000000     0.541000000
O     4.804000000     4.304000000    -2.055000000
H     4.586000000     3.386000000    -2.214000000
H     4.239000000     4.792000000    -2.655000000
O     0.474000000    -6.170000000     2.534000000
H    -0.153000000    -5.533000000     2.875000000
H     1.331000000    -5.806000000     2.757000000
O     2.345000000    -2.122000000    -1.599000000
H     3.298000000    -2.151000000    -1.682000000
H     2.105000000    -1.243000000    -1.890000000
O    -6.993000000    -1.569000000     1.892000000
H    -6.077000000    -1.303000000     1.813000000
H    -7.321000000    -1.569000000     0.993000000
O     2.405000000     2.702000000    -4.012000000
H     2.782000000     3.578000000    -4.085000000
H     1.472000000     2.855000000    -3.858000000
O    -1.784000000     2.958000000     2.594000000
H    -1.375000000     2.186000000     2.986000000
H    -2.723000000     2.820000000     2.717000000
O    -3.423000000    -4.553000000     2.568000000
H    -2.978000000    -4.200000000     3.339000000
H    -2.849000000    -4.327000000     1.836000000
O    -3.921000000    -0.774000000    -2.035000000
H    -4.334000000    -1.432000000    -2.594000000
H    -3.354000000    -1.276000000    -1.451000000
O     3.559000000     0.926000000    -6.129000000
H     4.418000000     1.036000000    -5.722000000
H     2.953000000     1.362000000    -5.530000000
O     0.307000000    -1.799000000     5.033000000
H     1.007000000    -1.266000000     4.656000000
H     0.665000000    -2.111000000     5.864000000
O    -2.302000000    -8.007000000     0.601000000
H    -2.152000000    -8.950000000     0.528000000
H    -1.444000000    -7.615000000     0.437000000
O     5.705000000     2.474000000     0.479000000
H     5.644000000     3.210000000     1.089000000
H     4.943000000     2.571000000    -0.091000000
O    -0.583000000     1.769000000    -5.515000000
H     0.004000000     1.992000000    -6.238000000
H    -1.129000000     1.061000000    -5.859000000
O     4.076000000     4.932000000     1.646000000
H     3.268000000     5.170000000     1.192000000
H     4.773000000     5.318000000     1.115000000
O    -6.174000000    -4.469000000     2.055000000
H    -5.282000000    -4.619000000     2.368000000
H    -6.064000000    -3.952000000     1.257000000
O    -4.150000000    -1.568000000     5.804000000
H    -3.534000000    -1.431000000     5.085000000
H    -4.832000000    -2.127000000     5.431000000
O    -1.802000000    -5.952000000     5.544000000
H    -2.632000000    -5.595000000     5.858000000
H    -1.481000000    -5.302000000     4.920000000
O     3.369000000    -5.592000000     1.894000000
H     2.919000000    -4.910000000     1.395000000
H     4.280000000    -5.300000000     1.929000000
O    -3.306000000     1.859000000    -2.967000000
H    -2.942000000     2.147000000    -2.130000000
H    -3.691000000     1.004000000    -2.779000000
O     3.258000000     2.912000000     3.967000000
H     3.226000000     3.422000000     4.776000000
H     3.522000000     3.543000000     3.297000000
O     4.309000000     1.564000000    -2.360000000
H     3.614000000     1.795000000    -2.976000000
H     4.603000000     0.699000000    -2.643000000
O    -2.411000000    -1.137000000     3.937000000
H    -1.642000000    -0.882000000     4.447000000
H    -2.596000000    -0.377000000     3.386000000
O     6.968000000     0.370000000    -0.359000000
H     6.481000000     1.193000000    -0.318000000
H     7.240000000     0.206000000     0.544000000
O    -4.914000000    -2.836000000    -3.484000000
H    -4.443000000    -2.882000000    -4.316000000
H    -5.041000000    -3.750000000    -3.229000000
O    -1.381000000    -4.383000000    -4.189000000
H    -1.860000000    -3.647000000    -4.572000000
H    -0.459000000    -4.158000000    -4.310000000
O     1.619000000     6.031000000     1.109000000
H     1.339000000     5.646000000     1.940000000
H     0.903000000     5.841000000     0.504000000
O    -2.416000000     2.047000000     0.048000000
H    -2.036000000     2.207000000     0.912000000
H    -1.674000000     1.780000000    -0.494000000
O     0.264000000     5.531000000    -1.271000000
H     0.160000000     4.749000000    -1.813000000
H     0.673000000     6.172000000    -1.852000000
