144
-2826.65684
O     3.538000000    -2.008000000     4.009000000
H     2.947000000    -1.984000000     3.256000000
H     2.957000000    -2.063000000     4.768000000
O    -3.303000000    -0.997000000     3.138000000
H    -3.570000000    -1.518000000     3.896000000
H    -2.962000000    -1.639000000     2.515000000
O    -3.619000000     1.994000000     2.951000000
H    -4.291000000     2.277000000     3.571000000
H    -3.865000000     1.098000000     2.724000000
O     3.468000000    -7.544000000    -1.169000000
H     2.719000000    -7.983000000    -1.572000000
H     3.110000000    -7.136000000    -0.379000000
O    -0.317000000    -3.501000000    -4.398000000
H     0.035000000    -4.298000000    -4.794000000
H     0.044000000    -2.790000000    -4.928000000
O     6.291000000    -4.227000000    -1.376000000
H     7.043000000    -4.806000000    -1.250000000
H     5.993000000    -4.025000000    -0.489000000
O     1.434000000     1.482000000    -5.972000000
H     1.498000000     1.585000000    -6.922000000
H     0.947000000     2.253000000    -5.680000000
O     0.564000000    -5.449000000    -0.167000000
H     1.248000000    -4.796000000    -0.019000000
H     0.071000000    -5.114000000    -0.915000000
O    -0.437000000     3.392000000    -5.685000000
H    -0.754000000     4.205000000    -6.080000000
H    -1.154000000     2.770000000    -5.807000000
O    -2.644000000     5.003000000    -2.790000000
H    -3.148000000     4.800000000    -3.577000000
H    -1.744000000     5.105000000    -3.101000000
O    -1.141000000    -4.846000000    -2.185000000
H    -0.709000000    -4.308000000    -2.848000000
H    -1.544000000    -4.214000000    -1.590000000
O    -5.041000000     2.676000000     0.297000000
H    -5.115000000     1.833000000     0.743000000
H    -4.850000000     2.449000000    -0.613000000
O     0.063000000     4.898000000    -3.406000000
H     0.931000000     4.791000000    -3.018000000
H     0.040000000     4.264000000    -4.122000000
O     1.281000000     0.457000000     5.197000000
H     2.048000000     1.028000000     5.194000000
H     0.608000000     0.957000000     4.734000000
O     2.637000000    -4.846000000     3.479000000
H     2.208000000    -4.607000000     4.301000000
H     2.330000000    -4.194000000     2.850000000
O     3.876000000    -2.912000000    -2.021000000
H     3.305000000    -3.213000000    -1.314000000
H     4.706000000    -3.363000000    -1.866000000
O    -5.482000000     0.340000000     1.224000000
H    -6.318000000    -0.092000000     1.398000000
H    -4.997000000    -0.284000000     0.685000000
O     4.966000000    -3.634000000     0.839000000
H     4.914000000    -4.382000000     1.434000000
H     4.105000000    -3.220000000     0.899000000
O    -1.053000000     2.343000000     4.289000000
H    -1.864000000     2.228000000     3.793000000
H    -0.512000000     2.906000000     3.736000000
O    -6.210000000     4.518000000     1.780000000
H    -6.444000000     5.319000000     1.312000000
H    -5.654000000     4.036000000     1.167000000
O     3.849000000    -1.968000000    -4.623000000
H     3.837000000    -2.275000000    -3.716000000
H     4.148000000    -2.725000000    -5.127000000
O     0.187000000    -8.161000000    -0.168000000
H     0.641000000    -8.274000000     0.667000000
H     0.179000000    -7.215000000    -0.311000000
O     4.321000000     3.703000000    -1.388000000
H     5.143000000     4.158000000    -1.572000000
H     4.585000000     2.807000000    -1.180000000
O    -5.121000000     2.810000000    -3.119000000
H    -5.905000000     3.212000000    -3.493000000
H    -4.401000000     3.146000000    -3.653000000
O    -3.981000000     4.305000000    -5.049000000
H    -4.788000000     4.618000000    -5.458000000
H    -3.578000000     3.746000000    -5.713000000
O    -2.161000000    -6.092000000     4.104000000
H    -1.470000000    -5.979000000     3.451000000
H    -1.921000000    -5.495000000     4.813000000
O    -0.194000000     3.692000000     1.996000000
H     0.737000000     3.892000000     1.902000000
H    -0.357000000     3.000000000     1.355000000
O    -0.828000000     7.633000000    -3.331000000
H    -0.805000000     6.685000000    -3.204000000
H    -0.411000000     7.989000000    -2.546000000
O     1.086000000    -1.347000000    -5.735000000
H     1.285000000    -0.418000000    -5.856000000
H     1.937000000    -1.756000000    -5.579000000
O    -2.067000000     0.527000000     6.048000000
H    -1.530000000     1.189000000     5.612000000
H    -2.420000000    -0.003000000     5.334000000
O     0.672000000    -2.514000000     4.846000000
H     0.814000000    -1.629000000     5.181000000
H     0.980000000    -2.480000000     3.941000000
O     2.678000000    -6.934000000     1.515000000
H     2.799000000    -6.032000000     1.810000000
H     2.001000000    -7.287000000     2.093000000
O    -6.104000000     0.441000000    -2.484000000
H    -5.724000000     1.319000000    -2.465000000
H    -5.735000000     0.037000000    -3.270000000
O    -2.596000000    -3.299000000     1.628000000
H    -2.326000000    -3.167000000     0.720000000
H    -2.021000000    -3.992000000     1.951000000
O     3.453000000     1.265000000    -0.414000000
H     2.871000000     0.928000000    -1.095000000
H     4.263000000     0.766000000    -0.522000000
O     2.837000000     4.843000000    -3.145000000
H     3.391000000     4.351000000    -2.540000000
H     3.222000000     5.719000000    -3.166000000
O     3.557000000     0.959000000    -4.146000000
H     2.699000000     1.266000000    -4.440000000
H     3.576000000     0.033000000    -4.390000000
O    -1.616000000    -0.637000000    -6.104000000
H    -0.884000000    -0.797000000    -6.700000000
H    -1.218000000    -0.632000000    -5.233000000
O     5.731000000    -0.689000000    -0.487000000
H     5.400000000    -0.893000000     0.387000000
H     5.381000000    -1.384000000    -1.044000000
O    -0.700000000    -4.498000000     5.855000000
H    -0.206000000    -3.837000000     5.369000000
H    -0.270000000    -4.538000000     6.709000000
O     5.240000000    -5.719000000     2.897000000
H     5.737000000    -5.373000000     3.638000000
H     4.324000000    -5.636000000     3.163000000
O     5.814000000    -0.710000000     2.555000000
H     6.496000000    -1.380000000     2.611000000
H     5.094000000    -1.055000000     3.082000000
O    -0.305000000    -4.888000000     2.352000000
H     0.111000000    -5.361000000     1.631000000
H     0.312000000    -4.189000000     2.568000000
O    -4.268000000    -1.512000000    -0.683000000
H    -4.590000000    -2.413000000    -0.710000000
H    -4.832000000    -1.037000000    -1.293000000
O    -3.973000000     6.044000000    -0.383000000
H    -3.850000000     5.424000000     0.336000000
H    -3.594000000     5.606000000    -1.145000000
O    -1.791000000    -2.477000000    -1.134000000
H    -2.611000000    -1.982000000    -1.149000000
H    -1.108000000    -1.810000000    -1.193000000
O    -2.665000000     4.797000000     2.127000000
H    -1.709000000     4.745000000     2.151000000
H    -2.958000000     3.902000000     2.301000000
O     3.993000000     1.162000000     2.356000000
H     4.760000000     0.594000000     2.418000000
H     3.818000000     1.228000000     1.417000000
