144
-2814.79952
O     3.879000000    -0.730000000    -4.543000000
H     2.938000000    -0.721000000    -4.719000000
H     3.987000000    -0.147000000    -3.791000000
O     2.365000000    -1.765000000     4.424000000
H     2.046000000    -2.112000000     3.590000000
H     1.987000000    -0.887000000     4.477000000
O    -3.155000000    -4.820000000     3.603000000
H    -3.213000000    -4.755000000     4.556000000
H    -2.439000000    -4.232000000     3.366000000
O     0.863000000     0.284000000     4.658000000
H     1.449000000     0.903000000     5.091000000
H     0.162000000     0.828000000     4.299000000
O    -2.291000000    -1.181000000     4.646000000
H    -2.569000000    -0.400000000     5.126000000
H    -2.827000000    -1.178000000     3.853000000
O     2.824000000    -5.987000000    -2.136000000
H     3.009000000    -6.872000000    -2.449000000
H     2.161000000    -6.108000000    -1.456000000
O     1.695000000     4.666000000    -2.561000000
H     2.436000000     4.415000000    -2.011000000
H     1.358000000     3.838000000    -2.903000000
O    -0.715000000     3.396000000    -6.417000000
H    -0.279000000     3.540000000    -7.256000000
H    -1.026000000     4.263000000    -6.156000000
O    -2.266000000     2.150000000    -4.312000000
H    -1.786000000     2.724000000    -4.909000000
H    -2.777000000     1.580000000    -4.886000000
O    -4.329000000     3.460000000    -3.236000000
H    -4.968000000     3.807000000    -3.859000000
H    -3.657000000     3.054000000    -3.783000000
O     2.511000000     5.458000000     0.979000000
H     2.056000000     5.769000000     0.197000000
H     2.213000000     4.554000000     1.087000000
O     1.103000000     2.439000000    -3.924000000
H     0.905000000     2.608000000    -4.844000000
H     0.990000000     1.494000000    -3.824000000
O     2.348000000    -5.645000000     1.451000000
H     2.388000000    -4.760000000     1.089000000
H     3.151000000    -5.730000000     1.965000000
O    -0.093000000     0.697000000    -6.460000000
H    -0.032000000     1.603000000    -6.157000000
H    -0.630000000     0.744000000    -7.251000000
O     4.303000000    -4.347000000    -0.778000000
H     3.622000000    -3.721000000    -0.532000000
H     3.837000000    -5.036000000    -1.251000000
O    -3.908000000    -1.557000000     2.562000000
H    -4.528000000    -2.282000000     2.640000000
H    -3.445000000    -1.726000000     1.742000000
O     4.484000000    -2.774000000     1.784000000
H     4.620000000    -3.608000000     2.232000000
H     3.771000000    -2.945000000     1.170000000
O    -2.993000000     2.628000000     2.868000000
H    -3.787000000     2.095000000     2.846000000
H    -3.243000000     3.449000000     2.444000000
O     5.808000000    -1.439000000    -2.736000000
H     5.445000000    -1.172000000    -3.580000000
H     6.648000000    -1.843000000    -2.952000000
O    -0.932000000    -4.222000000    -3.794000000
H    -0.770000000    -4.432000000    -4.714000000
H    -0.990000000    -3.267000000    -3.773000000
O     6.653000000    -5.370000000    -1.549000000
H     6.358000000    -5.416000000    -2.458000000
H     6.020000000    -4.795000000    -1.120000000
O     3.715000000     3.655000000    -0.878000000
H     4.226000000     4.251000000    -0.330000000
H     3.681000000     2.840000000    -0.377000000
O     0.238000000     4.164000000     4.107000000
H     1.169000000     3.948000000     4.153000000
H    -0.188000000     3.504000000     4.654000000
O    -1.001000000     7.392000000    -3.134000000
H    -1.679000000     6.716000000    -3.127000000
H    -1.218000000     7.956000000    -2.391000000
O     1.405000000     2.991000000     1.355000000
H     1.659000000     2.239000000     0.820000000
H     0.451000000     3.021000000     1.289000000
O    -1.821000000    -1.706000000    -4.093000000
H    -2.077000000    -0.811000000    -4.316000000
H    -2.372000000    -2.258000000    -4.648000000
O    -0.963000000    -3.288000000     3.587000000
H    -1.343000000    -2.560000000     4.079000000
H    -0.123000000    -2.952000000     3.275000000
O    -1.382000000     2.123000000     5.089000000
H    -1.711000000     2.391000000     4.231000000
H    -1.841000000     1.305000000     5.277000000
O    -3.349000000     4.875000000     1.008000000
H    -3.323000000     4.351000000     0.208000000
H    -2.600000000     5.466000000     0.932000000
O     2.168000000    -3.947000000    -4.169000000
H     2.193000000    -4.850000000    -3.852000000
H     2.383000000    -3.418000000    -3.400000000
O    -2.547000000    -4.806000000     0.165000000
H    -2.462000000    -3.869000000    -0.012000000
H    -1.861000000    -5.213000000    -0.365000000
O    -5.043000000     0.886000000     3.247000000
H    -5.977000000     0.714000000     3.368000000
H    -4.661000000     0.024000000     3.082000000
O     3.604000000     1.452000000    -2.814000000
H     2.905000000     1.942000000    -3.246000000
H     3.831000000     1.981000000    -2.049000000
O     4.355000000    -3.840000000     5.164000000
H     4.008000000    -2.985000000     4.910000000
H     3.827000000    -4.099000000     5.919000000
O     1.366000000    -0.644000000    -4.876000000
H     0.868000000    -0.386000000    -5.652000000
H     0.719000000    -1.054000000    -4.302000000
O    -0.772000000     5.896000000     1.284000000
H    -0.301000000     6.609000000     0.853000000
H    -0.902000000     6.202000000     2.182000000
O     0.353000000    -2.645000000     6.926000000
H     0.231000000    -2.368000000     6.017000000
H     1.197000000    -3.096000000     6.928000000
O     6.638000000     0.790000000    -0.935000000
H     5.920000000     0.176000000    -1.090000000
H     7.294000000     0.563000000    -1.594000000
O    -3.852000000     5.989000000    -2.541000000
H    -3.874000000     5.094000000    -2.879000000
H    -4.766000000     6.271000000    -2.549000000
O     0.040000000    -5.717000000     2.468000000
H     0.862000000    -5.674000000     1.981000000
H    -0.210000000    -4.802000000     2.598000000
O     4.822000000    -5.469000000     2.990000000
H     4.723000000    -5.119000000     3.876000000
H     5.760000000    -5.402000000     2.810000000
O     3.970000000    -0.211000000     2.522000000
H     4.289000000    -1.074000000     2.260000000
H     4.086000000    -0.191000000     3.472000000
O    -0.090000000    -5.090000000    -1.367000000
H    -0.393000000    -4.771000000    -2.218000000
H     0.459000000    -4.384000000    -1.028000000
O    -3.690000000    -0.138000000    -2.614000000
H    -3.081000000     0.574000000    -2.810000000
H    -4.524000000     0.152000000    -2.984000000
O    -5.123000000     2.236000000    -0.833000000
H    -4.685000000     1.386000000    -0.881000000
H    -4.916000000     2.660000000    -1.666000000
O    -2.380000000    -2.124000000    -0.578000000
H    -2.601000000    -2.376000000    -1.475000000
H    -1.918000000    -1.290000000    -0.671000000
O     3.185000000     1.101000000     0.051000000
H     3.530000000     0.613000000     0.799000000
H     2.581000000     0.492000000    -0.374000000
O     0.775000000     5.788000000    -4.947000000
H     0.163000000     6.454000000    -4.633000000
H     1.160000000     5.423000000    -4.151000000
