144
-2820.93493
O     3.804000000     0.072000000    -3.230000000
H     4.161000000    -0.003000000    -4.115000000
H     3.295000000    -0.729000000    -3.108000000
O     3.415000000    -1.041000000     3.784000000
H     2.959000000    -1.750000000     3.330000000
H     4.240000000    -1.432000000     4.072000000
O     1.358000000    -7.591000000     4.216000000
H     1.407000000    -6.732000000     3.795000000
H     2.269000000    -7.826000000     4.388000000
O    -2.782000000    -2.755000000     1.129000000
H    -2.774000000    -2.521000000     2.057000000
H    -2.050000000    -3.364000000     1.030000000
O    -5.393000000     2.276000000     1.006000000
H    -4.659000000     1.736000000     1.299000000
H    -5.474000000     2.084000000     0.072000000
O     7.554000000    -4.068000000     0.263000000
H     6.724000000    -4.517000000     0.422000000
H     7.483000000    -3.251000000     0.758000000
O     1.599000000    -5.206000000    -1.521000000
H     2.192000000    -4.505000000    -1.793000000
H     2.100000000    -5.707000000    -0.878000000
O    -1.338000000     1.789000000    -5.228000000
H    -0.555000000     2.336000000    -5.292000000
H    -1.049000000     1.014000000    -4.746000000
O    -5.237000000     1.649000000    -1.685000000
H    -4.842000000     1.942000000    -2.506000000
H    -5.366000000     0.708000000    -1.805000000
O     1.242000000     3.128000000    -6.003000000
H     1.901000000     2.706000000    -5.451000000
H     1.716000000     3.368000000    -6.799000000
O    -0.843000000    -0.108000000     5.192000000
H    -0.705000000     0.613000000     4.579000000
H    -1.784000000    -0.097000000     5.368000000
O     4.342000000     4.467000000    -2.851000000
H     5.113000000     4.896000000    -2.480000000
H     4.155000000     3.747000000    -2.248000000
O    -1.892000000    -5.744000000     3.714000000
H    -1.014000000    -5.364000000     3.682000000
H    -1.842000000    -6.406000000     4.404000000
O     6.870000000     0.364000000    -2.347000000
H     7.259000000    -0.142000000    -1.634000000
H     5.937000000     0.151000000    -2.311000000
O     3.135000000    -2.969000000    -2.123000000
H     3.086000000    -2.746000000    -1.193000000
H     4.003000000    -2.672000000    -2.396000000
O    -4.921000000    -1.050000000     0.593000000
H    -4.904000000    -0.775000000     1.510000000
H    -4.141000000    -1.596000000     0.493000000
O     4.192000000    -4.628000000     1.666000000
H     4.326000000    -4.535000000     2.609000000
H     4.023000000    -3.737000000     1.359000000
O    -1.398000000     4.000000000     1.640000000
H    -2.215000000     4.033000000     1.141000000
H    -0.805000000     4.583000000     1.165000000
O    -5.764000000     5.549000000     0.876000000
H    -4.954000000     6.052000000     0.795000000
H    -5.482000000     4.635000000     0.857000000
O    -3.361000000    -0.483000000    -5.653000000
H    -4.104000000    -0.964000000    -5.288000000
H    -2.720000000    -0.455000000    -4.943000000
O    -0.482000000     1.879000000     3.313000000
H    -1.078000000     2.578000000     3.043000000
H    -0.222000000     1.456000000     2.495000000
O    -4.414000000     0.019000000     3.083000000
H    -3.928000000     0.151000000     3.897000000
H    -5.163000000    -0.522000000     3.336000000
O     2.417000000     3.332000000     0.666000000
H     2.750000000     2.828000000    -0.077000000
H     2.384000000     2.702000000     1.386000000
O    -1.295000000    -1.061000000    -3.778000000
H    -0.467000000    -1.514000000    -3.941000000
H    -1.577000000    -1.379000000    -2.920000000
O     3.227000000     1.759000000     2.983000000
H     3.238000000     2.377000000     3.714000000
H     3.085000000     0.906000000     3.393000000
O    -0.006000000    -2.501000000     4.508000000
H    -0.214000000    -1.590000000     4.717000000
H     0.385000000    -2.463000000     3.635000000
O    -3.679000000     3.086000000     4.651000000
H    -3.661000000     2.748000000     5.547000000
H    -4.104000000     2.395000000     4.143000000
O    -4.344000000     4.595000000    -2.363000000
H    -3.457000000     4.627000000    -2.005000000
H    -4.276000000     4.013000000    -3.120000000
O     2.849000000    -6.647000000     0.411000000
H     3.558000000    -6.168000000     0.841000000
H     3.138000000    -7.559000000     0.418000000
O    -4.168000000     2.424000000    -4.244000000
H    -4.663000000     2.616000000    -5.040000000
H    -3.255000000     2.398000000    -4.530000000
O     6.771000000    -2.092000000     2.090000000
H     6.308000000    -2.615000000     2.745000000
H     7.095000000    -1.333000000     2.575000000
O    -3.338000000     6.746000000     0.882000000
H    -2.747000000     6.874000000     1.624000000
H    -2.757000000     6.581000000     0.139000000
O    -0.461000000    -4.382000000     0.721000000
H     0.112000000    -4.376000000    -0.045000000
H     0.116000000    -4.608000000     1.451000000
O     3.866000000     2.113000000    -1.545000000
H     3.913000000     1.341000000    -2.109000000
H     4.381000000     1.878000000    -0.773000000
O     3.387000000     2.402000000    -4.625000000
H     3.421000000     1.683000000    -3.995000000
H     3.800000000     3.138000000    -4.172000000
O     1.914000000     5.452000000    -4.504000000
H     2.781000000     5.071000000    -4.363000000
H     1.405000000     4.748000000    -4.905000000
O     1.268000000    -1.879000000    -3.996000000
H     1.736000000    -1.953000000    -4.828000000
H     1.855000000    -2.276000000    -3.354000000
O     2.371000000    -1.248000000     6.634000000
H     2.429000000    -0.735000000     5.828000000
H     1.487000000    -1.083000000     6.960000000
O     6.097000000    -3.008000000    -2.685000000
H     7.041000000    -2.986000000    -2.526000000
H     6.003000000    -3.498000000    -3.501000000
O     0.086000000    -4.889000000     5.661000000
H     0.080000000    -4.049000000     5.202000000
H     0.996000000    -5.183000000     5.611000000
O     5.279000000    -3.689000000     4.028000000
H     5.970000000    -4.348000000     3.962000000
H     4.734000000    -3.987000000     4.757000000
O     4.943000000    -0.546000000    -0.021000000
H     4.347000000    -1.196000000     0.353000000
H     5.658000000    -1.063000000    -0.393000000
O     1.550000000    -5.080000000     2.908000000
H     1.822000000    -4.181000000     2.723000000
H     2.234000000    -5.622000000     2.514000000
O    -1.733000000     5.520000000    -1.307000000
H    -1.393000000     5.745000000    -2.174000000
H    -0.960000000     5.510000000    -0.743000000
O    -1.563000000    -2.448000000    -1.463000000
H    -2.226000000    -2.271000000    -0.796000000
H    -0.736000000    -2.195000000    -1.052000000
O     0.537000000     5.049000000     0.058000000
H     1.180000000     4.341000000     0.101000000
H     1.019000000     5.828000000     0.336000000
O     5.664000000     1.768000000     1.565000000
H     5.482000000     0.962000000     1.082000000
H     4.836000000     1.982000000     1.995000000
O    -2.708000000    -2.584000000     4.067000000
H    -1.862000000    -2.721000000     4.495000000
H    -3.128000000    -3.444000000     4.086000000
