144
-2797.53394
O     7.527000000     0.943000000    -1.209000000
H     8.081000000     0.331000000    -1.693000000
H     6.682000000     0.499000000    -1.141000000
O    -1.241000000     1.102000000    -5.053000000
H    -1.267000000     0.182000000    -4.791000000
H    -0.738000000     1.105000000    -5.867000000
O     0.469000000     2.148000000     4.556000000
H    -0.039000000     2.851000000     4.962000000
H     0.690000000     2.483000000     3.688000000
O     0.850000000     0.987000000     6.873000000
H     0.525000000     0.122000000     6.623000000
H     0.689000000     1.535000000     6.105000000
O     1.340000000     2.399000000    -4.485000000
H     1.317000000     3.329000000    -4.711000000
H     0.716000000     2.312000000    -3.764000000
O     2.792000000     0.386000000    -5.527000000
H     2.378000000    -0.452000000    -5.320000000
H     2.327000000     1.023000000    -4.984000000
O    -5.426000000     0.011000000     1.773000000
H    -4.869000000    -0.759000000     1.884000000
H    -6.137000000    -0.114000000     2.402000000
O    -2.331000000    -6.916000000    -1.105000000
H    -1.876000000    -6.588000000    -1.881000000
H    -1.775000000    -6.652000000    -0.372000000
O    -5.087000000    -1.434000000    -0.588000000
H    -4.926000000    -0.718000000     0.027000000
H    -6.041000000    -1.492000000    -0.643000000
O     4.492000000     3.825000000     0.603000000
H     4.086000000     4.665000000     0.393000000
H     3.761000000     3.266000000     0.868000000
O     1.206000000    -2.592000000     4.732000000
H     1.219000000    -2.595000000     5.689000000
H     0.562000000    -1.923000000     4.503000000
O    -0.177000000    -0.665000000     3.447000000
H    -0.081000000     0.242000000     3.737000000
H    -0.204000000    -0.610000000     2.492000000
O    -6.744000000     1.356000000    -0.573000000
H    -6.248000000     1.144000000     0.218000000
H    -7.518000000     0.795000000    -0.529000000
O     5.437000000     5.795000000     2.209000000
H     5.346000000     4.961000000     1.748000000
H     6.340000000     6.064000000     2.040000000
O    -5.794000000    -4.567000000    -3.822000000
H    -4.953000000    -4.708000000    -3.386000000
H    -6.429000000    -5.022000000    -3.268000000
O     5.081000000    -0.362000000    -0.635000000
H     4.790000000    -0.376000000     0.277000000
H     4.655000000    -1.120000000    -1.034000000
O    -0.169000000     2.390000000    -2.340000000
H    -0.522000000     1.724000000    -1.751000000
H     0.574000000     2.762000000    -1.865000000
O     7.249000000     0.203000000     3.256000000
H     6.669000000     0.717000000     2.694000000
H     7.681000000    -0.409000000     2.660000000
O    -1.610000000    -5.279000000    -3.277000000
H    -1.050000000    -5.419000000    -4.041000000
H    -1.071000000    -4.765000000    -2.676000000
O    -5.613000000     0.836000000    -5.287000000
H    -5.150000000     0.312000000    -5.940000000
H    -5.233000000     0.568000000    -4.451000000
O    -0.583000000    -2.875000000    -5.324000000
H    -0.404000000    -3.804000000    -5.474000000
H    -0.606000000    -2.492000000    -6.201000000
O     2.042000000     4.589000000    -2.744000000
H     2.174000000     5.257000000    -2.071000000
H     1.160000000     4.756000000    -3.078000000
O    -1.597000000     6.733000000     4.732000000
H    -1.006000000     6.333000000     4.094000000
H    -2.399000000     6.905000000     4.240000000
O    -3.558000000     2.026000000    -2.067000000
H    -2.980000000     2.383000000    -2.741000000
H    -3.925000000     1.235000000    -2.461000000
O     3.305000000     3.815000000     4.568000000
H     3.147000000     4.758000000     4.596000000
H     2.478000000     3.443000000     4.263000000
O     3.858000000    -0.289000000     1.818000000
H     3.020000000    -0.595000000     1.472000000
H     3.825000000     0.663000000     1.721000000
O     1.977000000    -2.122000000    -5.029000000
H     1.020000000    -2.150000000    -5.061000000
H     2.256000000    -2.802000000    -5.643000000
O    -0.718000000     4.289000000     6.005000000
H    -1.598000000     4.664000000     5.978000000
H    -0.205000000     4.838000000     5.413000000
O     5.185000000    -1.576000000     3.882000000
H     6.017000000    -1.186000000     3.616000000
H     4.569000000    -1.318000000     3.196000000
O     0.052000000     5.513000000     3.007000000
H     0.920000000     5.863000000     2.804000000
H     0.093000000     4.597000000     2.735000000
O    -4.475000000    -0.633000000    -3.221000000
H    -3.985000000    -1.383000000    -3.556000000
H    -4.611000000    -0.830000000    -2.294000000
O    -2.876000000     3.944000000     0.263000000
H    -3.011000000     3.445000000    -0.542000000
H    -3.034000000     3.313000000     0.965000000
O    -3.702000000    -2.019000000     2.401000000
H    -3.726000000    -2.623000000     3.143000000
H    -3.000000000    -2.354000000     1.842000000
O     5.763000000     2.740000000     4.095000000
H     4.868000000     3.010000000     4.297000000
H     5.687000000     2.258000000     3.271000000
O    -0.189000000    -5.496000000     0.476000000
H     0.155000000    -5.534000000     1.369000000
H     0.502000000    -5.067000000    -0.029000000
O     3.556000000     6.108000000    -0.563000000
H     4.477000000     6.353000000    -0.645000000
H     3.075000000     6.906000000    -0.781000000
O     1.278000000    -5.272000000    -4.017000000
H     1.872000000    -4.923000000    -3.352000000
H     1.633000000    -4.953000000    -4.846000000
O    -4.228000000    -3.982000000    -1.283000000
H    -4.545000000    -3.148000000    -0.934000000
H    -3.725000000    -4.366000000    -0.566000000
O     3.408000000    -3.992000000    -3.215000000
H     3.336000000    -3.342000000    -3.915000000
H     4.246000000    -4.425000000    -3.377000000
O    -2.617000000    -4.248000000     1.009000000
H    -2.806000000    -4.512000000     1.909000000
H    -1.701000000    -4.492000000     0.874000000
O     6.546000000     2.017000000     1.298000000
H     5.784000000     2.546000000     1.061000000
H     6.907000000     1.728000000     0.460000000
O    -3.888000000     2.229000000     2.300000000
H    -4.491000000     1.496000000     2.174000000
H    -4.457000000     2.986000000     2.439000000
O    -3.256000000    -3.080000000    -3.912000000
H    -2.524000000    -3.197000000    -4.517000000
H    -3.185000000    -3.816000000    -3.305000000
O     2.189000000    -4.371000000    -0.631000000
H     2.537000000    -5.234000000    -0.404000000
H     2.707000000    -4.095000000    -1.387000000
O     4.616000000     3.977000000    -3.570000000
H     3.672000000     3.968000000    -3.409000000
H     4.993000000     4.338000000    -2.767000000
O    -1.345000000     6.847000000     0.802000000
H    -0.930000000     6.419000000     1.551000000
H    -1.500000000     6.138000000     0.177000000
O    -3.321000000     0.716000000     4.659000000
H    -2.766000000     0.029000000     4.290000000
H    -3.448000000     1.334000000     3.939000000
O     2.513000000     6.092000000     2.143000000
H     2.579000000     6.298000000     1.211000000
H     3.421000000     6.014000000     2.436000000
