144
-2816.35367
O     4.620000000    -1.822000000    -1.528000000
H     5.292000000    -2.402000000    -1.170000000
H     3.879000000    -1.916000000    -0.930000000
O    -3.360000000    -1.869000000    -5.374000000
H    -3.246000000    -2.535000000    -4.697000000
H    -3.068000000    -2.295000000    -6.180000000
O    -1.660000000     0.706000000     4.455000000
H    -1.571000000     0.844000000     5.398000000
H    -0.940000000     1.204000000     4.070000000
O     4.972000000     0.567000000    -2.818000000
H     4.166000000     1.008000000    -2.551000000
H     4.974000000    -0.251000000    -2.321000000
O    -0.684000000    -1.024000000     7.381000000
H    -0.093000000    -0.433000000     7.848000000
H    -0.313000000    -1.087000000     6.501000000
O     0.734000000     1.127000000    -5.269000000
H     0.458000000     1.693000000    -4.547000000
H     0.349000000     0.275000000    -5.065000000
O     1.799000000    -3.042000000    -3.967000000
H     1.144000000    -2.758000000    -4.605000000
H     2.629000000    -2.711000000    -4.312000000
O    -4.695000000     0.085000000    -4.170000000
H    -5.627000000    -0.121000000    -4.240000000
H    -4.261000000    -0.594000000    -4.686000000
O    -3.395000000     1.751000000    -6.326000000
H    -4.302000000     1.781000000    -6.631000000
H    -3.340000000     0.944000000    -5.815000000
O    -0.402000000    -1.242000000    -6.037000000
H    -0.718000000    -0.673000000    -6.738000000
H    -0.569000000    -2.130000000    -6.355000000
O     3.283000000     2.504000000     0.430000000
H     3.092000000     3.389000000     0.741000000
H     2.653000000     1.948000000     0.888000000
O    -0.738000000    -2.146000000     4.611000000
H    -0.734000000    -1.218000000     4.377000000
H    -1.646000000    -2.421000000     4.484000000
O    -1.604000000    -2.573000000     0.757000000
H    -0.842000000    -2.904000000     1.232000000
H    -1.333000000    -1.711000000     0.441000000
O     3.708000000     2.490000000     4.291000000
H     3.105000000     1.973000000     3.757000000
H     4.523000000     2.502000000     3.789000000
O     3.668000000    -3.057000000     0.972000000
H     3.116000000    -2.691000000     1.663000000
H     3.122000000    -3.724000000     0.557000000
O     5.675000000    -0.033000000     5.174000000
H     5.064000000    -0.275000000     4.478000000
H     6.316000000    -0.744000000     5.188000000
O    -3.854000000    -6.648000000    -1.630000000
H    -3.161000000    -5.987000000    -1.623000000
H    -4.074000000    -6.773000000    -0.706000000
O    -3.414000000    -3.756000000    -3.598000000
H    -3.885000000    -4.543000000    -3.872000000
H    -3.063000000    -3.975000000    -2.735000000
O     3.405000000     2.220000000    -4.984000000
H     2.488000000     1.945000000    -4.997000000
H     3.668000000     2.137000000    -4.068000000
O     0.582000000     3.198000000    -3.351000000
H    -0.304000000     3.461000000    -3.104000000
H     0.989000000     4.001000000    -3.677000000
O    -4.661000000     0.863000000    -1.679000000
H    -4.439000000     0.521000000    -2.545000000
H    -5.435000000     0.364000000    -1.416000000
O     1.100000000     2.717000000     5.801000000
H     0.157000000     2.809000000     5.938000000
H     1.180000000     2.352000000     4.920000000
O     4.217000000    -1.770000000    -4.592000000
H     4.502000000    -0.868000000    -4.741000000
H     3.781000000    -1.744000000    -3.740000000
O     2.401000000    -0.258000000    -7.900000000
H     2.074000000    -0.197000000    -7.003000000
H     1.881000000    -0.956000000    -8.298000000
O     1.453000000    -2.965000000     3.282000000
H     0.633000000    -2.911000000     3.773000000
H     1.355000000    -3.745000000     2.736000000
O     6.144000000    -2.181000000     1.157000000
H     5.216000000    -2.377000000     1.285000000
H     6.261000000    -1.311000000     1.539000000
O    -0.019000000    -4.889000000    -2.925000000
H     0.372000000    -4.177000000    -3.430000000
H     0.044000000    -5.653000000    -3.499000000
O    -1.741000000     3.010000000     6.402000000
H    -2.301000000     3.589000000     5.885000000
H    -1.586000000     3.489000000     7.216000000
O    -2.384000000     3.700000000    -2.993000000
H    -2.660000000     2.803000000    -3.183000000
H    -3.164000000     4.230000000    -3.158000000
O    -0.936000000     4.207000000     2.307000000
H    -0.560000000     5.048000000     2.048000000
H    -0.196000000     3.711000000     2.658000000
O    -6.604000000    -0.912000000    -0.436000000
H    -6.379000000    -1.534000000    -1.128000000
H    -6.486000000    -1.405000000     0.377000000
O    -4.823000000     2.404000000     0.633000000
H    -4.867000000     1.831000000    -0.132000000
H    -4.621000000     1.817000000     1.361000000
O    -3.634000000    -3.245000000     2.281000000
H    -2.904000000    -2.897000000     1.770000000
H    -3.300000000    -4.061000000     2.652000000
O     1.627000000    -0.190000000     6.028000000
H     1.685000000     0.763000000     5.954000000
H     2.374000000    -0.515000000     5.526000000
O     5.638000000     2.840000000     2.060000000
H     5.944000000     1.944000000     1.919000000
H     5.010000000     2.992000000     1.354000000
O    -2.896000000     5.050000000     4.739000000
H    -2.038000000     4.958000000     4.325000000
H    -3.478000000     4.506000000     4.208000000
O    -1.040000000     5.809000000    -0.950000000
H    -1.145000000     5.467000000    -1.838000000
H    -1.874000000     5.619000000    -0.521000000
O    -2.251000000    -4.515000000    -1.333000000
H    -1.362000000    -4.641000000    -1.665000000
H    -2.141000000    -3.959000000    -0.561000000
O     3.477000000     3.761000000     7.116000000
H     2.830000000     3.658000000     6.418000000
H     4.235000000     3.259000000     6.817000000
O     2.283000000    -4.963000000    -0.759000000
H     1.574000000    -5.090000000    -1.388000000
H     3.077000000    -5.185000000    -1.245000000
O    -4.480000000     5.405000000    -1.577000000
H    -4.004000000     4.753000000    -1.064000000
H    -5.309000000     4.979000000    -1.795000000
O     3.551000000    -1.269000000     3.893000000
H     3.222000000    -0.601000000     3.291000000
H     2.839000000    -1.906000000     3.957000000
O    -4.147000000     1.104000000     3.011000000
H    -3.389000000     0.600000000     3.309000000
H    -4.313000000     1.728000000     3.718000000
O    -6.303000000    -3.206000000    -2.075000000
H    -6.853000000    -3.222000000    -2.858000000
H    -5.413000000    -3.098000000    -2.409000000
O     0.551000000     5.791000000     5.252000000
H     0.291000000     4.982000000     5.693000000
H     1.331000000     5.551000000     4.752000000
O     2.697000000     1.899000000    -2.063000000
H     1.850000000     2.285000000    -2.288000000
H     2.878000000     2.218000000    -1.179000000
O    -3.423000000     4.476000000     1.159000000
H    -2.622000000     4.095000000     1.520000000
H    -4.015000000     3.731000000     1.054000000
O     2.509000000     4.859000000     3.442000000
H     2.689000000     4.819000000     2.503000000
H     2.867000000     4.043000000     3.790000000
