144
-2810.05389
O     2.185000000     4.130000000    -4.032000000
H     1.598000000     4.870000000    -4.189000000
H     1.761000000     3.391000000    -4.468000000
O     3.030000000     6.140000000     2.743000000
H     3.802000000     5.780000000     3.178000000
H     2.394000000     6.265000000     3.447000000
O     2.927000000     1.923000000     3.257000000
H     3.214000000     1.043000000     3.499000000
H     3.146000000     2.000000000     2.329000000
O    -0.339000000     1.365000000     4.760000000
H    -1.231000000     1.060000000     4.594000000
H     0.128000000     0.587000000     5.064000000
O    -1.945000000    -5.727000000    -0.240000000
H    -2.514000000    -4.989000000    -0.019000000
H    -1.222000000    -5.666000000     0.384000000
O    -5.292000000    -2.784000000    -0.401000000
H    -5.032000000    -3.071000000     0.474000000
H    -6.085000000    -2.267000000    -0.258000000
O    -1.168000000    -3.163000000    -2.064000000
H    -0.774000000    -3.841000000    -1.515000000
H    -0.533000000    -2.447000000    -2.052000000
O    -2.783000000    -0.439000000     3.302000000
H    -3.554000000    -0.765000000     3.766000000
H    -2.512000000    -1.169000000     2.745000000
O     2.842000000     1.149000000    -5.675000000
H     2.499000000     1.412000000    -6.529000000
H     2.070000000     1.104000000    -5.111000000
O     3.159000000    -2.953000000    -0.995000000
H     3.439000000    -3.709000000    -1.512000000
H     2.240000000    -3.129000000    -0.793000000
O     0.148000000    -2.764000000     5.604000000
H     0.747000000    -2.080000000     5.904000000
H    -0.516000000    -2.819000000     6.291000000
O     4.270000000     2.457000000     0.865000000
H     4.455000000     2.548000000    -0.070000000
H     4.818000000     3.121000000     1.283000000
O     0.390000000     6.309000000    -4.064000000
H    -0.125000000     7.051000000    -4.381000000
H     0.165000000     6.240000000    -3.137000000
O     4.295000000    -2.109000000     2.568000000
H     3.717000000    -2.846000000     2.760000000
H     3.879000000    -1.664000000     1.830000000
O    -2.503000000    -3.986000000     4.683000000
H    -1.989000000    -3.752000000     3.910000000
H    -3.049000000    -3.217000000     4.849000000
O     0.381000000     3.585000000     3.120000000
H    -0.116000000     3.020000000     3.711000000
H     1.268000000     3.226000000     3.134000000
O    -2.672000000     5.297000000    -4.052000000
H    -2.314000000     5.401000000    -3.170000000
H    -2.825000000     4.356000000    -4.139000000
O     4.485000000     0.728000000    -3.227000000
H     5.381000000     0.400000000    -3.154000000
H     4.374000000     0.917000000    -4.158000000
O     5.041000000    -0.338000000     0.662000000
H     4.883000000    -0.555000000    -0.257000000
H     4.918000000     0.610000000     0.709000000
O    -1.256000000     5.153000000     1.522000000
H    -1.899000000     5.364000000     2.199000000
H    -0.580000000     4.654000000     1.981000000
O    -3.225000000     1.799000000     1.800000000
H    -2.669000000     1.644000000     1.036000000
H    -2.989000000     1.103000000     2.413000000
O     4.225000000    -6.319000000     0.446000000
H     4.608000000    -5.453000000     0.311000000
H     3.520000000    -6.174000000     1.078000000
O    -1.860000000     0.333000000    -3.354000000
H    -1.018000000    -0.121000000    -3.338000000
H    -2.278000000     0.092000000    -2.528000000
O     3.698000000    -0.614000000     4.679000000
H     3.839000000    -1.244000000     5.386000000
H     3.622000000    -1.153000000     3.891000000
O    -4.462000000    -5.976000000     5.281000000
H    -4.121000000    -5.553000000     4.493000000
H    -4.943000000    -6.737000000     4.954000000
O     4.577000000     5.362000000    -3.445000000
H     3.922000000     4.747000000    -3.776000000
H     5.416000000     4.981000000    -3.704000000
O     5.022000000     3.007000000    -1.667000000
H     4.297000000     3.538000000    -1.994000000
H     4.894000000     2.150000000    -2.074000000
O    -3.311000000    -6.220000000     2.717000000
H    -2.373000000    -6.373000000     2.827000000
H    -3.642000000    -7.029000000     2.326000000
O     1.610000000    -3.346000000     3.380000000
H     0.885000000    -3.421000000     2.759000000
H     1.186000000    -3.203000000     4.227000000
O     5.560000000    -3.685000000     0.371000000
H     5.718000000    -3.114000000     1.123000000
H     5.054000000    -3.146000000    -0.237000000
O    -6.276000000    -1.930000000     2.963000000
H    -6.227000000    -2.879000000     3.077000000
H    -5.401000000    -1.617000000     3.192000000
O    -6.940000000    -5.604000000     2.569000000
H    -6.094000000    -5.157000000     2.569000000
H    -6.779000000    -6.422000000     3.039000000
O     2.672000000     5.776000000     0.074000000
H     3.618000000     5.769000000    -0.072000000
H     2.575000000     5.673000000     1.021000000
O    -0.546000000    -6.205000000     2.395000000
H    -0.481000000    -5.312000000     2.056000000
H     0.351000000    -6.538000000     2.366000000
O    -3.882000000    -2.100000000    -2.735000000
H    -2.964000000    -2.304000000    -2.554000000
H    -4.321000000    -2.201000000    -1.890000000
O    -3.803000000    -0.774000000    -5.117000000
H    -3.054000000    -0.278000000    -4.787000000
H    -4.043000000    -1.355000000    -4.394000000
O    -4.415000000    -1.470000000     5.232000000
H    -5.230000000    -1.693000000     5.682000000
H    -3.922000000    -0.957000000     5.872000000
O     3.032000000     7.528000000    -2.640000000
H     3.436000000     6.684000000    -2.844000000
H     2.164000000     7.303000000    -2.305000000
O     2.554000000    -5.874000000     2.712000000
H     2.507000000    -6.414000000     3.502000000
H     2.366000000    -4.987000000     3.017000000
O    -4.537000000    -4.007000000     1.959000000
H    -4.092000000    -4.847000000     2.072000000
H    -3.837000000    -3.393000000     1.737000000
O     0.832000000    -4.698000000    -0.733000000
H     0.801000000    -5.653000000    -0.793000000
H     0.233000000    -4.482000000    -0.019000000
O     0.877000000    -5.566000000     5.532000000
H    -0.037000000    -5.754000000     5.743000000
H     0.884000000    -4.636000000     5.304000000
O     0.517000000     6.351000000    -1.501000000
H     1.246000000     6.193000000    -0.901000000
H    -0.232000000     5.923000000    -1.088000000
O     6.147000000    -1.455000000    -2.732000000
H     5.418000000    -1.971000000    -2.388000000
H     6.037000000    -1.490000000    -3.682000000
O    -2.429000000     5.716000000    -0.861000000
H    -1.855000000     5.797000000    -0.099000000
H    -2.861000000     4.870000000    -0.745000000
O     1.000000000    -0.473000000    -3.273000000
H     1.517000000    -0.900000000    -3.956000000
H     1.606000000    -0.379000000    -2.538000000
O    -3.740000000     3.419000000    -0.322000000
H    -4.529000000     3.758000000    -0.745000000
H    -4.065000000     2.789000000     0.321000000
O    -3.152000000     2.673000000    -4.281000000
H    -2.459000000     2.017000000    -4.203000000
H    -3.965000000     2.172000000    -4.211000000
