144
-2818.47732
O    -5.483000000     0.569000000    -4.461000000
H    -4.874000000    -0.159000000    -4.342000000
H    -5.230000000     0.958000000    -5.298000000
O    -7.806000000    -1.548000000     1.504000000
H    -7.691000000    -0.984000000     2.268000000
H    -6.945000000    -1.942000000     1.365000000
O     3.861000000     2.520000000     1.961000000
H     3.821000000     3.264000000     2.562000000
H     4.047000000     2.911000000     1.108000000
O    -2.712000000    -5.045000000     2.532000000
H    -1.856000000    -4.791000000     2.189000000
H    -3.179000000    -4.217000000     2.646000000
O     4.803000000    -4.730000000    -0.324000000
H     4.857000000    -3.781000000    -0.204000000
H     4.283000000    -4.841000000    -1.120000000
O    -3.517000000    -3.528000000    -2.249000000
H    -3.185000000    -4.398000000    -2.472000000
H    -4.432000000    -3.676000000    -2.007000000
O    -4.431000000     1.221000000    -1.969000000
H    -4.807000000     0.865000000    -2.773000000
H    -5.151000000     1.203000000    -1.339000000
O    -1.583000000    -3.184000000    -0.293000000
H    -1.278000000    -2.327000000     0.005000000
H    -2.226000000    -2.987000000    -0.974000000
O     1.093000000     2.965000000     2.892000000
H     2.038000000     2.818000000     2.883000000
H     0.726000000     2.147000000     3.228000000
O    -2.509000000    -2.902000000     7.957000000
H    -2.278000000    -2.921000000     7.029000000
H    -3.430000000    -3.160000000     7.981000000
O     4.773000000    -1.476000000    -0.819000000
H     4.672000000    -0.567000000    -1.100000000
H     3.895000000    -1.849000000    -0.891000000
O    -3.717000000    -1.566000000    -4.245000000
H    -3.707000000    -2.265000000    -4.899000000
H    -3.808000000    -2.023000000    -3.408000000
O     0.654000000    -0.191000000     6.926000000
H    -0.159000000    -0.222000000     7.431000000
H     1.195000000     0.452000000     7.383000000
O     4.850000000     0.056000000    -5.241000000
H     5.397000000    -0.724000000    -5.150000000
H     5.462000000     0.788000000    -5.169000000
O    -4.681000000     1.225000000     3.437000000
H    -4.011000000     0.734000000     2.961000000
H    -4.248000000     1.500000000     4.245000000
O     5.139000000     1.257000000    -1.940000000
H     6.069000000     1.364000000    -1.740000000
H     5.113000000     1.108000000    -2.885000000
O    -4.551000000    -1.533000000     5.517000000
H    -3.724000000    -1.994000000     5.657000000
H    -4.367000000    -0.628000000     5.771000000
O     2.141000000    -0.321000000    -5.835000000
H     3.034000000    -0.171000000    -5.527000000
H     1.729000000    -0.830000000    -5.136000000
O    -1.733000000     0.095000000    -5.514000000
H    -1.366000000    -0.565000000    -6.103000000
H    -2.485000000    -0.338000000    -5.109000000
O    -3.224000000     3.446000000    -2.908000000
H    -4.096000000     3.840000000    -2.876000000
H    -3.352000000     2.554000000    -2.586000000
O     4.137000000     3.508000000    -0.640000000
H     4.413000000     2.761000000    -1.170000000
H     3.197000000     3.585000000    -0.806000000
O     1.352000000     3.588000000    -0.748000000
H     1.283000000     4.500000000    -0.465000000
H     0.758000000     3.112000000    -0.168000000
O     2.339000000    -3.649000000     1.522000000
H     2.914000000    -3.743000000     2.282000000
H     1.454000000    -3.708000000     1.882000000
O     3.311000000     4.283000000    -5.660000000
H     2.810000000     3.498000000    -5.439000000
H     3.494000000     4.196000000    -6.595000000
O    -4.700000000    -3.025000000     3.078000000
H    -4.773000000    -2.603000000     3.934000000
H    -4.798000000    -2.309000000     2.449000000
O     7.383000000    -2.152000000    -0.135000000
H     6.490000000    -1.891000000    -0.358000000
H     7.894000000    -1.952000000    -0.919000000
O    -6.770000000    -0.246000000     3.620000000
H    -6.041000000     0.335000000     3.400000000
H    -6.617000000    -0.487000000     4.534000000
O    -5.675000000    -4.348000000     0.234000000
H    -5.899000000    -3.852000000    -0.554000000
H    -5.318000000    -3.695000000     0.836000000
O     0.080000000     0.861000000     4.475000000
H    -0.427000000     0.187000000     4.023000000
H     0.415000000     0.424000000     5.258000000
O     3.538000000     0.095000000     3.648000000
H     3.635000000     0.877000000     3.104000000
H     2.989000000    -0.492000000     3.129000000
O    -5.260000000     2.829000000     1.334000000
H    -4.748000000     2.252000000     1.901000000
H    -6.034000000     3.049000000     1.851000000
O     5.579000000     5.759000000    -0.011000000
H     5.191000000     4.910000000    -0.225000000
H     5.647000000     6.210000000    -0.853000000
O    -2.123000000    -2.734000000     5.312000000
H    -2.011000000    -2.291000000     4.470000000
H    -1.378000000    -3.333000000     5.368000000
O     0.888000000    -1.920000000    -3.873000000
H     0.537000000    -1.622000000    -3.033000000
H     0.180000000    -2.437000000    -4.258000000
O    -3.046000000     1.498000000     5.584000000
H    -2.706000000     1.391000000     6.473000000
H    -2.265000000     1.588000000     5.038000000
O    -7.259000000     2.803000000     3.122000000
H    -6.645000000     2.072000000     3.200000000
H    -7.970000000     2.584000000     3.724000000
O     2.786000000    -2.209000000     5.390000000
H     3.577000000    -1.769000000     5.078000000
H     2.128000000    -1.515000000     5.436000000
O    -0.223000000    -3.453000000     2.850000000
H    -0.987000000    -2.908000000     2.659000000
H    -0.216000000    -3.530000000     3.804000000
O    -4.986000000    -1.306000000     0.455000000
H    -5.669000000    -0.690000000     0.192000000
H    -4.338000000    -0.766000000     0.907000000
O     0.753000000    -4.757000000    -0.713000000
H     1.533000000    -4.332000000    -0.355000000
H     0.022000000    -4.322000000    -0.275000000
O     0.205000000    -3.992000000     5.564000000
H     1.099000000    -3.740000000     5.334000000
H     0.297000000    -4.851000000     5.978000000
O     2.686000000    -2.811000000    -2.096000000
H     2.959000000    -3.654000000    -2.457000000
H     2.004000000    -2.504000000    -2.694000000
O    -1.673000000     2.838000000    -5.050000000
H    -1.890000000     1.909000000    -5.124000000
H    -2.201000000     3.149000000    -4.315000000
O     3.942000000    -3.181000000    -5.635000000
H     4.260000000    -3.106000000    -6.535000000
H     4.605000000    -2.734000000    -5.108000000
O    -6.654000000     0.831000000    -0.089000000
H    -7.605000000     0.763000000     0.000000000
H    -6.424000000     1.620000000     0.401000000
O    -3.982000000     4.692000000    -0.097000000
H    -3.383000000     4.107000000    -0.560000000
H    -4.519000000     4.110000000     0.440000000
O     1.138000000     2.316000000    -6.205000000
H     0.341000000     2.355000000    -5.677000000
H     1.262000000     1.384000000    -6.384000000
O     0.728000000     3.322000000    -3.288000000
H    -0.228000000     3.327000000    -3.232000000
H     1.021000000     3.349000000    -2.377000000
