144
-2792.90433
O     2.670000000     1.750000000    -5.672000000
H     2.618000000     1.186000000    -6.444000000
H     1.758000000     1.910000000    -5.430000000
O    -5.897000000    -2.081000000     1.562000000
H    -6.597000000    -2.330000000     2.166000000
H    -5.659000000    -1.192000000     1.825000000
O     0.811000000     5.280000000     3.864000000
H     0.882000000     4.669000000     4.598000000
H     0.089000000     4.937000000     3.336000000
O    -1.652000000     4.616000000     2.808000000
H    -1.549000000     4.618000000     1.856000000
H    -2.417000000     4.062000000     2.964000000
O     3.740000000     2.917000000    -1.465000000
H     4.333000000     3.609000000    -1.756000000
H     2.890000000     3.349000000    -1.378000000
O     1.100000000    -4.169000000    -4.167000000
H     1.771000000    -4.504000000    -3.572000000
H     0.552000000    -4.929000000    -4.363000000
O     5.061000000    -3.242000000     2.814000000
H     5.315000000    -3.425000000     3.718000000
H     5.880000000    -3.010000000     2.377000000
O    -0.637000000    -5.303000000    -1.787000000
H    -0.832000000    -4.601000000    -2.407000000
H     0.012000000    -4.925000000    -1.194000000
O     0.680000000     4.279000000     0.459000000
H    -0.239000000     4.367000000     0.208000000
H     1.165000000     4.411000000    -0.356000000
O     3.077000000    -5.368000000    -2.773000000
H     3.021000000    -6.232000000    -2.364000000
H     4.016000000    -5.197000000    -2.843000000
O     2.998000000     3.042000000     1.572000000
H     3.424000000     2.636000000     0.817000000
H     2.067000000     3.045000000     1.350000000
O    -4.868000000    -3.323000000    -2.182000000
H    -5.304000000    -2.474000000    -2.246000000
H    -4.229000000    -3.212000000    -1.478000000
O    -5.186000000     4.086000000     4.521000000
H    -5.036000000     4.829000000     5.105000000
H    -4.515000000     3.449000000     4.767000000
O     6.867000000     0.231000000     1.431000000
H     6.834000000     1.154000000     1.682000000
H     6.183000000     0.138000000     0.769000000
O     6.362000000     1.213000000    -5.087000000
H     5.695000000     0.590000000    -5.376000000
H     6.148000000     1.387000000    -4.171000000
O    -4.795000000    -0.233000000     2.889000000
H    -4.121000000     0.384000000     2.605000000
H    -5.556000000     0.316000000     3.082000000
O     5.690000000    -2.776000000    -2.705000000
H     5.002000000    -2.320000000    -2.220000000
H     6.413000000    -2.148000000    -2.742000000
O     5.881000000     1.676000000    -2.086000000
H     6.449000000     2.446000000    -2.085000000
H     5.007000000     2.023000000    -1.906000000
O    -2.528000000    -0.050000000     8.043000000
H    -2.222000000    -0.560000000     7.294000000
H    -2.492000000    -0.661000000     8.779000000
O     5.259000000    -1.322000000    -6.307000000
H     4.686000000    -1.921000000    -5.827000000
H     5.732000000    -1.884000000    -6.921000000
O    -3.460000000    -1.297000000    -5.099000000
H    -2.705000000    -1.870000000    -4.967000000
H    -3.928000000    -1.322000000    -4.264000000
O    -5.046000000     1.085000000    -4.180000000
H    -4.987000000     1.691000000    -4.919000000
H    -4.369000000     0.431000000    -4.352000000
O     0.706000000    -2.038000000     4.025000000
H     0.972000000    -1.952000000     4.941000000
H     0.043000000    -1.359000000     3.903000000
O     4.739000000    -0.536000000     4.418000000
H     4.522000000    -1.425000000     4.139000000
H     3.903000000    -0.070000000     4.407000000
O    -3.894000000    -2.314000000     4.685000000
H    -4.024000000    -1.701000000     3.961000000
H    -3.170000000    -1.942000000     5.188000000
O    -1.388000000     2.482000000     7.339000000
H    -1.435000000     1.682000000     7.861000000
H    -0.469000000     2.746000000     7.388000000
O    -3.633000000    -3.284000000     0.291000000
H    -2.792000000    -3.274000000     0.747000000
H    -4.276000000    -3.077000000     0.969000000
O    -2.246000000     1.286000000    -4.701000000
H    -2.444000000     1.326000000    -5.637000000
H    -2.007000000     0.372000000    -4.546000000
O     0.300000000     2.402000000     4.547000000
H    -0.200000000     1.711000000     4.114000000
H     0.459000000     2.067000000     5.430000000
O     3.895000000     2.948000000     4.231000000
H     3.594000000     3.026000000     3.326000000
H     3.091000000     2.896000000     4.747000000
O    -4.368000000     3.208000000     1.970000000
H    -3.766000000     2.465000000     2.007000000
H    -4.819000000     3.193000000     2.815000000
O     3.599000000    -3.260000000    -5.561000000
H     2.715000000    -3.286000000    -5.194000000
H     4.065000000    -3.966000000    -5.114000000
O    -0.965000000    -3.584000000     1.189000000
H    -0.345000000    -4.311000000     1.239000000
H    -0.492000000    -2.897000000     0.720000000
O    -1.355000000    -1.255000000     5.878000000
H    -1.234000000    -0.624000000     5.168000000
H    -0.467000000    -1.492000000     6.143000000
O     3.433000000    -3.078000000    -0.790000000
H     2.907000000    -3.134000000     0.008000000
H     2.994000000    -3.665000000    -1.406000000
O    -3.313000000     2.418000000     4.990000000
H    -2.764000000     2.233000000     5.752000000
H    -2.894000000     1.944000000     4.272000000
O    -6.847000000     1.621000000     2.747000000
H    -6.878000000     2.570000000     2.621000000
H    -7.760000000     1.342000000     2.690000000
O    -1.293000000    -2.988000000    -5.138000000
H    -0.387000000    -2.914000000    -4.839000000
H    -1.288000000    -3.736000000    -5.736000000
O     2.669000000     0.633000000     5.964000000
H     3.586000000     0.785000000     6.192000000
H     2.216000000     1.423000000     6.259000000
O     2.632000000    -2.780000000     1.601000000
H     3.418000000    -3.126000000     2.025000000
H     2.150000000    -2.347000000     2.305000000
O    -3.832000000    -0.576000000    -2.087000000
H    -4.535000000     0.051000000    -1.916000000
H    -3.446000000    -0.745000000    -1.228000000
O     1.036000000    -4.882000000     3.703000000
H     0.939000000    -3.963000000     3.454000000
H     0.855000000    -4.896000000     4.643000000
O     1.178000000    -1.581000000     6.691000000
H     1.881000000    -0.964000000     6.491000000
H     1.509000000    -2.089000000     7.432000000
O     5.054000000    -0.673000000    -0.432000000
H     4.842000000     0.052000000    -1.019000000
H     4.335000000    -1.295000000    -0.551000000
O    -1.743000000     4.616000000     0.101000000
H    -2.340000000     3.953000000    -0.245000000
H    -1.893000000     5.385000000    -0.450000000
O     0.080000000     3.205000000    -6.014000000
H    -0.180000000     3.822000000    -6.698000000
H    -0.662000000     3.189000000    -5.410000000
O    -5.077000000     1.349000000    -0.383000000
H    -5.728000000     1.712000000    -0.984000000
H    -5.114000000     1.920000000     0.384000000
O    -2.630000000     3.935000000    -4.378000000
H    -2.635000000     2.984000000    -4.271000000
H    -3.037000000     4.269000000    -3.578000000
