144
-2808.23439
O    -3.556000000     1.511000000    -4.951000000
H    -3.554000000     1.727000000    -4.018000000
H    -3.061000000     2.219000000    -5.362000000
O    -1.234000000    -0.005000000    -4.634000000
H    -1.785000000     0.776000000    -4.594000000
H    -0.885000000    -0.098000000    -3.747000000
O     0.065000000     2.919000000    -4.141000000
H     0.671000000     3.565000000    -4.503000000
H    -0.576000000     3.439000000    -3.655000000
O     4.845000000    -4.017000000    -2.477000000
H     5.659000000    -4.349000000    -2.097000000
H     4.813000000    -3.099000000    -2.208000000
O    -7.021000000     2.949000000     3.458000000
H    -7.656000000     3.434000000     3.986000000
H    -7.267000000     3.139000000     2.553000000
O     1.175000000     6.086000000    -0.743000000
H     0.437000000     6.039000000    -1.350000000
H     1.692000000     5.303000000    -0.932000000
O     5.800000000    -1.773000000    -1.121000000
H     6.244000000    -1.090000000    -1.623000000
H     6.480000000    -2.426000000    -0.952000000
O     1.743000000     0.077000000    -6.331000000
H     1.610000000     0.289000000    -5.407000000
H     2.687000000     0.161000000    -6.463000000
O     2.726000000     3.851000000    -0.903000000
H     2.853000000     3.434000000    -0.050000000
H     3.612000000     3.968000000    -1.246000000
O    -3.858000000    -2.916000000     1.305000000
H    -3.440000000    -2.093000000     1.557000000
H    -4.369000000    -2.696000000     0.526000000
O    -3.279000000    -2.686000000    -3.610000000
H    -3.529000000    -3.336000000    -2.953000000
H    -2.538000000    -2.223000000    -3.219000000
O    -1.310000000    -1.474000000    -2.052000000
H    -1.379000000    -1.050000000    -1.197000000
H    -0.374000000    -1.643000000    -2.161000000
O    -4.299000000    -1.060000000     4.349000000
H    -4.193000000    -0.784000000     3.439000000
H    -3.455000000    -1.447000000     4.582000000
O    -7.612000000    -1.588000000     3.778000000
H    -8.341000000    -0.968000000     3.744000000
H    -6.834000000    -1.037000000     3.870000000
O    -7.369000000    -2.577000000     1.147000000
H    -7.454000000    -2.320000000     2.065000000
H    -7.022000000    -1.798000000     0.711000000
O     1.261000000    -2.768000000    -3.074000000
H     2.085000000    -2.280000000    -3.065000000
H     1.280000000    -3.253000000    -3.899000000
O    -7.488000000     3.266000000     0.590000000
H    -8.052000000     3.980000000     0.292000000
H    -7.997000000     2.473000000     0.421000000
O    -6.059000000    -0.493000000    -0.415000000
H    -5.263000000    -0.081000000    -0.079000000
H    -6.322000000     0.061000000    -1.150000000
O    -4.099000000     4.675000000    -3.434000000
H    -4.594000000     4.399000000    -2.663000000
H    -4.524000000     5.484000000    -3.716000000
O    -5.117000000     5.750000000     0.979000000
H    -5.115000000     5.945000000     1.916000000
H    -4.552000000     4.982000000     0.893000000
O    -1.781000000    -1.960000000     5.037000000
H    -0.897000000    -1.670000000     5.260000000
H    -1.820000000    -2.866000000     5.345000000
O    -0.087000000    -3.951000000    -0.634000000
H     0.753000000    -4.409000000    -0.639000000
H    -0.070000000    -3.410000000    -1.423000000
O     2.854000000    -4.972000000    -0.765000000
H     2.923000000    -4.895000000    -1.717000000
H     3.606000000    -4.484000000    -0.430000000
O    -2.578000000    -6.042000000     0.060000000
H    -2.848000000    -6.480000000     0.867000000
H    -2.227000000    -5.200000000     0.349000000
O    -4.342000000     2.431000000     3.314000000
H    -5.250000000     2.564000000     3.587000000
H    -4.389000000     1.740000000     2.654000000
O    -1.918000000     2.656000000     5.407000000
H    -2.504000000     3.317000000     5.775000000
H    -2.481000000     2.119000000     4.850000000
O     3.120000000     3.017000000     1.850000000
H     2.346000000     2.533000000     2.137000000
H     3.854000000     2.439000000     2.058000000
O     0.940000000     1.660000000     2.509000000
H     1.212000000     0.801000000     2.833000000
H     0.534000000     1.480000000     1.661000000
O     5.233000000     1.405000000     2.240000000
H     5.270000000     0.472000000     2.032000000
H     6.147000000     1.657000000     2.375000000
O     5.280000000    -1.079000000     1.448000000
H     5.610000000    -1.769000000     2.024000000
H     5.445000000    -1.406000000     0.564000000
O     6.357000000     1.825000000    -0.786000000
H     6.002000000     1.580000000     0.068000000
H     5.984000000     2.689000000    -0.962000000
O    -5.505000000    -3.164000000     5.573000000
H    -5.220000000    -2.330000000     5.199000000
H    -5.513000000    -3.769000000     4.832000000
O     4.287000000     3.794000000    -3.606000000
H     3.397000000     3.639000000    -3.289000000
H     4.265000000     4.683000000    -3.960000000
O     2.609000000    -6.282000000     1.416000000
H     2.767000000    -5.789000000     0.611000000
H     1.939000000    -5.777000000     1.878000000
O     4.067000000    -4.496000000    -5.057000000
H     4.185000000    -4.396000000    -4.113000000
H     3.129000000    -4.372000000    -5.197000000
O     2.970000000    -0.463000000     2.919000000
H     3.625000000    -0.614000000     2.238000000
H     2.721000000    -1.340000000     3.211000000
O     2.219000000    -3.106000000     3.643000000
H     1.756000000    -2.941000000     4.464000000
H     1.543000000    -3.431000000     3.048000000
O     5.433000000     1.646000000    -4.323000000
H     4.966000000     2.448000000    -4.088000000
H     6.232000000     1.671000000    -3.798000000
O    -4.935000000    -4.497000000     3.145000000
H    -4.498000000    -4.054000000     2.419000000
H    -5.434000000    -5.202000000     2.731000000
O     4.410000000    -1.030000000    -3.961000000
H     5.169000000    -1.511000000    -4.292000000
H     4.559000000    -0.126000000    -4.239000000
O    -1.600000000     5.017000000    -2.297000000
H    -1.637000000     5.261000000    -1.372000000
H    -2.419000000     4.547000000    -2.454000000
O    -3.054000000     3.526000000     1.348000000
H    -3.352000000     3.349000000     2.240000000
H    -2.872000000     2.661000000     0.980000000
O    -2.286000000    -5.383000000     3.389000000
H    -3.225000000    -5.220000000     3.304000000
H    -1.987000000    -4.734000000     4.026000000
O    -1.793000000     5.840000000     0.240000000
H    -2.236000000     5.188000000     0.784000000
H    -1.005000000     6.068000000     0.733000000
O    -4.057000000     1.278000000    -2.209000000
H    -4.585000000     2.076000000    -2.171000000
H    -3.901000000     1.051000000    -1.292000000
O     4.906000000    -4.109000000     4.007000000
H     4.940000000    -5.013000000     3.694000000
H     3.991000000    -3.851000000     3.897000000
O    -5.776000000     3.318000000    -1.645000000
H    -6.329000000     3.765000000    -2.286000000
H    -6.285000000     3.336000000    -0.835000000
O     0.114000000    -4.478000000     2.162000000
H    -0.026000000    -4.116000000     1.286000000
H    -0.641000000    -5.047000000     2.309000000
