144
-2804.45814
O    -5.293000000     4.570000000     2.444000000
H    -4.690000000     4.750000000     1.724000000
H    -6.163000000     4.685000000     2.062000000
O    -3.074000000    -1.518000000    -4.910000000
H    -3.762000000    -0.874000000    -5.080000000
H    -2.258000000    -1.043000000    -5.065000000
O     3.799000000    -0.444000000     1.954000000
H     4.627000000    -0.117000000     1.603000000
H     3.146000000    -0.194000000     1.301000000
O     4.616000000    -4.192000000     0.556000000
H     4.402000000    -4.898000000    -0.054000000
H     5.082000000    -3.548000000     0.023000000
O    -2.982000000     3.891000000     3.868000000
H    -2.566000000     3.214000000     3.334000000
H    -3.881000000     3.935000000     3.543000000
O    -2.391000000    -2.388000000     2.884000000
H    -1.998000000    -3.023000000     2.285000000
H    -3.178000000    -2.822000000     3.212000000
O     5.365000000    -1.706000000    -4.031000000
H     5.700000000    -2.351000000    -4.654000000
H     4.481000000    -1.511000000    -4.340000000
O    -4.058000000     2.712000000     0.231000000
H    -3.765000000     3.623000000     0.220000000
H    -3.468000000     2.278000000     0.849000000
O    -0.123000000    -1.125000000    -7.070000000
H     0.504000000    -0.556000000    -7.517000000
H    -0.954000000    -0.965000000    -7.518000000
O     6.402000000     0.669000000     1.404000000
H     6.256000000     1.219000000     0.634000000
H     6.992000000    -0.020000000     1.098000000
O     2.855000000    -1.030000000    -5.077000000
H     2.265000000    -0.321000000    -4.822000000
H     3.238000000    -0.738000000    -5.905000000
O     4.911000000    -1.979000000    -1.341000000
H     4.560000000    -1.095000000    -1.226000000
H     5.046000000    -2.062000000    -2.285000000
O    -2.228000000     5.860000000     5.775000000
H    -2.363000000     5.176000000     5.119000000
H    -1.830000000     6.582000000     5.290000000
O     3.695000000     3.020000000    -0.214000000
H     3.956000000     3.426000000     0.612000000
H     2.748000000     3.154000000    -0.258000000
O    -5.442000000     1.310000000    -1.913000000
H    -4.833000000     0.579000000    -1.807000000
H    -5.046000000     2.025000000    -1.414000000
O    -0.632000000    -3.487000000     1.230000000
H    -0.951000000    -2.631000000     0.943000000
H     0.207000000    -3.591000000     0.782000000
O     4.838000000    -2.722000000     2.923000000
H     4.550000000    -3.168000000     2.127000000
H     4.452000000    -1.848000000     2.861000000
O    -0.408000000    -1.848000000     4.977000000
H    -1.083000000    -1.965000000     4.308000000
H    -0.803000000    -1.252000000     5.613000000
O     1.985000000     0.326000000     6.844000000
H     1.548000000    -0.512000000     6.692000000
H     2.001000000     0.747000000     5.985000000
O     2.822000000     4.166000000     2.635000000
H     2.117000000     4.803000000     2.522000000
H     3.562000000     4.681000000     2.957000000
O     4.770000000     0.316000000     5.258000000
H     4.195000000     0.460000000     4.506000000
H     4.271000000    -0.263000000     5.834000000
O     0.641000000    -3.017000000    -5.489000000
H     0.401000000    -2.409000000    -6.188000000
H     1.324000000    -2.560000000    -4.998000000
O    -3.979000000     0.080000000     3.724000000
H    -3.375000000    -0.052000000     2.994000000
H    -3.634000000     0.844000000     4.186000000
O     2.631000000     4.122000000    -2.975000000
H     2.449000000     3.926000000    -2.056000000
H     1.858000000     4.600000000    -3.275000000
O    -3.166000000     5.470000000     0.512000000
H    -2.231000000     5.339000000     0.666000000
H    -3.288000000     6.418000000     0.566000000
O    -3.282000000    -5.844000000    -3.096000000
H    -2.417000000    -5.444000000    -3.195000000
H    -3.526000000    -6.108000000    -3.983000000
O     1.167000000     3.766000000    -0.700000000
H     1.338000000     4.598000000    -0.260000000
H     0.289000000     3.518000000    -0.411000000
O    -0.570000000     2.726000000     5.645000000
H    -0.376000000     1.795000000     5.757000000
H    -0.691000000     2.833000000     4.701000000
O     1.456000000    -5.422000000    -2.050000000
H     0.977000000    -6.237000000    -2.199000000
H     1.891000000    -5.244000000    -2.884000000
O    -3.646000000     2.637000000     6.487000000
H    -4.249000000     2.991000000     5.833000000
H    -2.808000000     3.054000000     6.291000000
O    -0.869000000     0.410000000    -4.946000000
H    -1.184000000     0.965000000    -5.660000000
H    -0.210000000    -0.152000000    -5.353000000
O    -5.322000000    -3.004000000     1.118000000
H    -5.978000000    -2.309000000     1.175000000
H    -5.065000000    -3.164000000     2.026000000
O     4.459000000     0.742000000    -1.480000000
H     5.286000000     0.922000000    -1.928000000
H     4.259000000     1.553000000    -1.012000000
O    -5.793000000     3.464000000     4.837000000
H    -6.709000000     3.644000000     5.048000000
H    -5.606000000     4.024000000     4.084000000
O    -4.195000000    -1.524000000    -1.324000000
H    -4.513000000    -2.074000000    -0.609000000
H    -4.298000000    -2.065000000    -2.107000000
O     3.136000000    -5.334000000    -4.117000000
H     3.136000000    -6.274000000    -4.294000000
H     4.061000000    -5.109000000    -4.017000000
O    -6.466000000    -0.949000000     2.151000000
H    -7.026000000    -0.573000000     2.831000000
H    -5.575000000    -0.740000000     2.432000000
O    -3.702000000     6.998000000     3.548000000
H    -4.624000000     7.052000000     3.799000000
H    -3.594000000     6.105000000     3.222000000
O     3.028000000     1.718000000    -4.171000000
H     2.728000000     2.621000000    -4.075000000
H     3.344000000     1.476000000    -3.300000000
O    -0.714000000     4.627000000     1.255000000
H    -0.211000000     5.176000000     1.857000000
H    -0.969000000     3.868000000     1.780000000
O     1.955000000    -4.062000000     0.447000000
H     1.851000000    -4.545000000    -0.373000000
H     2.891000000    -3.872000000     0.497000000
O    -1.145000000    -5.070000000    -4.626000000
H    -1.737000000    -4.937000000    -5.366000000
H    -0.586000000    -4.293000000    -4.624000000
O     2.101000000     1.531000000     4.234000000
H     2.201000000     2.363000000     4.697000000
H     1.443000000     1.709000000     3.562000000
O     4.130000000    -6.220000000    -1.126000000
H     3.213000000    -6.096000000    -1.371000000
H     4.252000000    -7.169000000    -1.126000000
O    -4.808000000    -3.189000000    -3.412000000
H    -4.326000000    -3.976000000    -3.159000000
H    -4.202000000    -2.709000000    -3.977000000
O    -1.372000000     1.956000000    -2.709000000
H    -1.101000000     1.353000000    -3.402000000
H    -1.098000000     1.527000000    -1.898000000
O     1.708000000     4.033000000     5.969000000
H     0.784000000     3.956000000     5.732000000
H     1.897000000     4.968000000     5.895000000
O    -0.877000000     4.545000000     7.825000000
H    -1.557000000     5.100000000     7.444000000
H    -0.659000000     3.923000000     7.130000000
