144
-2813.39551
O    -2.838000000     4.047000000    -0.191000000
H    -3.137000000     3.800000000     0.684000000
H    -2.166000000     4.711000000    -0.036000000
O    -2.172000000     5.476000000     6.024000000
H    -2.003000000     5.766000000     5.127000000
H    -2.175000000     4.520000000     5.970000000
O     3.844000000    -4.442000000     1.297000000
H     4.694000000    -4.356000000     1.729000000
H     3.980000000    -4.074000000     0.424000000
O    -5.655000000    -2.365000000    -1.474000000
H    -5.263000000    -2.970000000    -2.104000000
H    -5.279000000    -1.513000000    -1.695000000
O    -1.197000000     3.265000000     4.311000000
H    -1.343000000     2.374000000     3.993000000
H    -1.259000000     3.811000000     3.528000000
O    -0.380000000    -1.183000000     7.649000000
H    -0.203000000    -0.597000000     8.385000000
H    -0.492000000    -2.044000000     8.051000000
O    -4.719000000     0.021000000    -2.509000000
H    -4.718000000     0.968000000    -2.369000000
H    -4.034000000    -0.126000000    -3.161000000
O    -1.678000000    -1.997000000     4.363000000
H    -2.002000000    -2.300000000     3.514000000
H    -1.890000000    -1.064000000     4.381000000
O     2.929000000     2.769000000    -0.294000000
H     2.635000000     2.368000000     0.523000000
H     3.229000000     3.642000000    -0.038000000
O     4.268000000    -3.483000000    -1.264000000
H     3.685000000    -3.789000000    -1.959000000
H     5.138000000    -3.774000000    -1.536000000
O    -4.053000000    -3.748000000    -3.758000000
H    -3.893000000    -4.044000000    -4.654000000
H    -3.518000000    -2.960000000    -3.667000000
O    -5.328000000     1.202000000     0.962000000
H    -5.921000000     0.493000000     0.714000000
H    -4.531000000     0.758000000     1.250000000
O    -3.612000000     2.644000000     5.669000000
H    -2.859000000     2.823000000     5.106000000
H    -3.898000000     1.766000000     5.415000000
O     4.470000000    -0.481000000     1.966000000
H     4.917000000    -0.055000000     1.235000000
H     3.780000000     0.133000000     2.216000000
O     5.563000000    -0.722000000    -5.332000000
H     5.504000000     0.058000000    -5.883000000
H     6.236000000    -1.260000000    -5.749000000
O     1.880000000     3.159000000    -4.015000000
H     1.449000000     3.064000000    -4.865000000
H     1.180000000     3.434000000    -3.422000000
O    -0.670000000    -3.195000000    -1.944000000
H    -1.060000000    -2.908000000    -2.769000000
H    -0.362000000    -2.389000000    -1.531000000
O    -2.390000000    -4.737000000    -0.459000000
H    -3.241000000    -4.958000000    -0.838000000
H    -1.990000000    -4.145000000    -1.096000000
O     5.532000000    -2.825000000     2.628000000
H     5.319000000    -2.526000000     3.513000000
H     5.057000000    -2.225000000     2.053000000
O    -5.762000000     0.363000000     7.260000000
H    -5.735000000     1.242000000     7.637000000
H    -5.565000000     0.494000000     6.333000000
O     1.192000000    -0.427000000     5.079000000
H     0.614000000    -0.776000000     5.757000000
H     0.605000000    -0.206000000     4.355000000
O     2.895000000    -4.200000000    -3.746000000
H     3.786000000    -4.418000000    -4.021000000
H     2.348000000    -4.442000000    -4.493000000
O     7.658000000    -0.103000000    -2.296000000
H     7.738000000     0.569000000    -2.973000000
H     6.763000000    -0.429000000    -2.386000000
O     0.954000000    -3.299000000     4.458000000
H     1.255000000    -3.418000000     3.557000000
H     0.088000000    -2.902000000     4.371000000
O     2.650000000    -1.453000000    -5.364000000
H     3.253000000    -0.775000000    -5.059000000
H     2.769000000    -2.175000000    -4.748000000
O    -4.780000000     0.508000000     4.475000000
H    -5.544000000     0.841000000     4.003000000
H    -4.122000000     0.367000000     3.795000000
O     0.363000000    -0.404000000    -6.555000000
H     0.130000000     0.505000000    -6.362000000
H     1.303000000    -0.452000000    -6.384000000
O    -3.759000000     3.261000000     2.151000000
H    -3.302000000     2.458000000     2.404000000
H    -3.538000000     3.889000000     2.839000000
O     3.022000000    -2.015000000     6.248000000
H     2.719000000    -1.126000000     6.064000000
H     2.519000000    -2.568000000     5.650000000
O     2.149000000     4.940000000     4.896000000
H     3.095000000     4.814000000     4.965000000
H     1.780000000     4.068000000     5.033000000
O     4.775000000     0.911000000    -0.341000000
H     4.119000000     1.603000000    -0.259000000
H     4.865000000     0.777000000    -1.285000000
O     0.519000000     3.215000000    -1.500000000
H     0.362000000     2.304000000    -1.252000000
H     1.466000000     3.325000000    -1.423000000
O    -5.747000000     4.266000000     0.622000000
H    -5.250000000     3.697000000     1.211000000
H    -5.350000000     5.130000000     0.733000000
O    -5.723000000    -2.564000000     5.689000000
H    -6.044000000    -2.474000000     6.586000000
H    -5.418000000    -1.687000000     5.454000000
O    -2.420000000    -3.082000000     1.638000000
H    -3.233000000    -2.632000000     1.405000000
H    -2.284000000    -3.711000000     0.929000000
O    -3.442000000     0.064000000    -5.149000000
H    -3.941000000     0.860000000    -4.970000000
H    -3.561000000    -0.088000000    -6.086000000
O    -5.238000000    -2.003000000     1.186000000
H    -5.682000000    -1.990000000     0.338000000
H    -5.899000000    -2.326000000     1.797000000
O     5.095000000    -0.657000000    -2.795000000
H     5.163000000    -0.480000000    -3.733000000
H     5.117000000    -1.612000000    -2.730000000
O    -1.768000000     1.594000000     8.601000000
H    -0.849000000     1.399000000     8.417000000
H    -2.243000000     1.249000000     7.845000000
O    -1.797000000    -1.729000000    -3.972000000
H    -1.256000000    -1.748000000    -4.761000000
H    -2.408000000    -1.006000000    -4.118000000
O    -6.835000000     2.083000000     3.301000000
H    -6.348000000     1.836000000     2.515000000
H    -7.277000000     2.898000000     3.064000000
O     3.692000000     1.615000000    -5.583000000
H     4.077000000     2.373000000    -6.023000000
H     3.085000000     1.991000000    -4.946000000
O     6.972000000     1.991000000     0.670000000
H     6.326000000     1.514000000     0.150000000
H     7.602000000     2.319000000     0.028000000
O     2.969000000     2.081000000     2.646000000
H     3.782000000     2.579000000     2.725000000
H     2.471000000     2.308000000     3.431000000
O     1.339000000    -3.410000000     1.683000000
H     2.270000000    -3.594000000     1.552000000
H     1.173000000    -2.630000000     1.155000000
O    -1.031000000    -2.860000000    -6.792000000
H    -1.660000000    -2.205000000    -7.096000000
H    -0.187000000    -2.410000000    -6.816000000
O     1.260000000     2.453000000     5.241000000
H     0.400000000     2.692000000     4.894000000
H     1.152000000     1.554000000     5.551000000
O    -4.777000000     3.168000000    -1.938000000
H    -4.030000000     3.506000000    -1.444000000
H    -5.514000000     3.230000000    -1.330000000
