144
-2805.21489
O    -3.860000000     0.565000000     4.574000000
H    -3.162000000     1.054000000     5.009000000
H    -4.410000000     1.238000000     4.173000000
O     5.202000000    -3.119000000    -0.801000000
H     5.347000000    -3.799000000    -0.142000000
H     5.462000000    -2.306000000    -0.368000000
O    -2.498000000    -1.635000000    -0.397000000
H    -2.729000000    -2.463000000     0.025000000
H    -1.545000000    -1.588000000    -0.327000000
O     0.862000000     7.118000000    -1.394000000
H     0.308000000     6.568000000    -1.948000000
H     1.748000000     6.980000000    -1.729000000
O     2.518000000    -3.688000000     4.759000000
H     2.353000000    -2.955000000     5.351000000
H     1.770000000    -3.686000000     4.161000000
O     1.611000000    -2.366000000    -4.601000000
H     2.248000000    -2.721000000    -3.981000000
H     0.801000000    -2.291000000    -4.096000000
O     3.639000000    -6.358000000     4.470000000
H     3.625000000    -5.404000000     4.542000000
H     2.813000000    -6.578000000     4.040000000
O     2.172000000    -1.302000000     6.023000000
H     2.522000000    -0.901000000     5.227000000
H     1.451000000    -0.728000000     6.284000000
O     1.564000000     4.545000000     0.601000000
H     1.210000000     4.567000000     1.490000000
H     0.859000000     4.893000000     0.054000000
O     4.466000000    -0.457000000    -3.195000000
H     5.262000000     0.072000000    -3.247000000
H     4.238000000    -0.456000000    -2.265000000
O     3.051000000     0.551000000    -5.480000000
H     3.475000000    -0.012000000    -4.832000000
H     3.076000000     0.044000000    -6.291000000
O     0.424000000    -5.310000000     1.915000000
H     1.084000000    -4.647000000     1.709000000
H     0.148000000    -5.105000000     2.808000000
O    -3.719000000    -4.111000000     5.090000000
H    -3.674000000    -3.398000000     4.453000000
H    -3.113000000    -3.850000000     5.784000000
O    -2.880000000     3.513000000     1.702000000
H    -3.595000000     3.952000000     2.161000000
H    -3.241000000     2.661000000     1.456000000
O     6.203000000    -1.267000000     0.991000000
H     6.588000000    -0.458000000     1.329000000
H     5.422000000    -1.402000000     1.527000000
O    -2.885000000    -2.154000000     3.218000000
H    -1.938000000    -2.067000000     3.105000000
H    -3.160000000    -1.314000000     3.585000000
O     5.571000000    -2.771000000     5.653000000
H     5.691000000    -2.142000000     6.364000000
H     5.172000000    -2.261000000     4.947000000
O     1.908000000    -5.467000000    -1.357000000
H     2.094000000    -4.743000000    -0.759000000
H     1.186000000    -5.940000000    -0.944000000
O    -2.661000000    -5.067000000     2.256000000
H    -1.824000000    -5.039000000     2.719000000
H    -2.928000000    -4.151000000     2.187000000
O    -4.291000000     0.764000000     1.301000000
H    -3.661000000     0.100000000     1.021000000
H    -4.997000000     0.266000000     1.713000000
O    -4.173000000    -2.117000000    -5.383000000
H    -4.647000000    -1.363000000    -5.033000000
H    -3.460000000    -1.735000000    -5.895000000
O    -3.227000000    -0.094000000    -2.665000000
H    -3.161000000    -0.642000000    -1.884000000
H    -4.079000000     0.336000000    -2.585000000
O    -0.878000000     3.260000000    -5.517000000
H    -1.045000000     4.011000000    -6.086000000
H    -1.711000000     2.790000000    -5.489000000
O     1.238000000    -7.421000000     4.390000000
H     0.564000000    -6.743000000     4.340000000
H     1.139000000    -7.791000000     5.267000000
O    -0.626000000    -0.701000000     5.947000000
H    -0.865000000     0.225000000     5.986000000
H    -0.699000000    -0.928000000     5.020000000
O     3.769000000    -1.498000000     2.351000000
H     2.917000000    -1.917000000     2.477000000
H     3.564000000    -0.570000000     2.236000000
O     2.341000000     0.581000000     4.080000000
H     2.864000000     0.809000000     3.312000000
H     1.533000000     1.083000000     3.978000000
O    -0.435000000     0.027000000    -4.945000000
H     0.521000000    -0.003000000    -4.933000000
H    -0.645000000     0.960000000    -4.992000000
O    -3.878000000     6.121000000    -2.273000000
H    -3.566000000     5.879000000    -3.145000000
H    -3.788000000     5.320000000    -1.756000000
O     5.315000000     3.563000000    -4.316000000
H     5.572000000     4.436000000    -4.020000000
H     4.363000000     3.609000000    -4.399000000
O    -5.001000000    -2.837000000    -2.491000000
H    -4.545000000    -3.566000000    -2.070000000
H    -4.387000000    -2.520000000    -3.153000000
O    -3.266000000     3.601000000    -1.760000000
H    -2.989000000     3.001000000    -2.452000000
H    -4.097000000     3.243000000    -1.449000000
O     2.628000000     2.936000000    -4.403000000
H     2.081000000     3.425000000    -5.018000000
H     2.672000000     2.053000000    -4.771000000
O     0.005000000     5.861000000    -3.706000000
H     0.807000000     5.573000000    -4.142000000
H    -0.552000000     5.083000000    -3.690000000
O     2.155000000    -3.335000000     7.994000000
H     1.233000000    -3.556000000     8.129000000
H     2.141000000    -2.644000000     7.332000000
O     3.215000000     1.392000000     1.858000000
H     3.123000000     1.962000000     1.094000000
H     3.898000000     1.806000000     2.385000000
O     3.815000000    -3.200000000    -3.179000000
H     3.920000000    -2.249000000    -3.203000000
H     4.119000000    -3.452000000    -2.307000000
O    -5.461000000     2.507000000    -0.443000000
H    -5.955000000     1.808000000    -0.872000000
H    -5.023000000     2.075000000     0.290000000
O    -1.075000000    -1.911000000    -3.378000000
H    -1.689000000    -1.668000000    -2.684000000
H    -0.931000000    -1.099000000    -3.864000000
O    -3.071000000     1.917000000    -4.764000000
H    -3.981000000     2.065000000    -5.019000000
H    -3.094000000     1.107000000    -4.254000000
O    -0.761000000     3.107000000     3.200000000
H    -1.506000000     3.288000000     2.627000000
H    -0.370000000     3.965000000     3.364000000
O    -1.308000000     4.935000000    -0.174000000
H    -1.790000000     4.513000000     0.537000000
H    -1.758000000     4.652000000    -0.970000000
O    -0.468000000    -4.235000000     4.358000000
H    -0.357000000    -3.303000000     4.166000000
H    -1.000000000    -4.253000000     5.153000000
O    -1.697000000    -3.185000000     6.476000000
H    -1.360000000    -2.299000000     6.342000000
H    -1.229000000    -3.505000000     7.247000000
O    -1.035000000     1.942000000     5.625000000
H    -1.503000000     2.613000000     6.120000000
H    -0.912000000     2.327000000     4.757000000
O     3.037000000    -4.240000000     1.278000000
H     2.448000000    -3.783000000     1.879000000
H     3.914000000    -3.975000000     1.554000000
O    -2.272000000    -0.570000000    -6.689000000
H    -1.454000000    -0.505000000    -6.197000000
H    -2.715000000     0.263000000    -6.529000000
O     3.292000000     2.715000000    -0.497000000
H     2.712000000     2.504000000    -1.229000000
H     2.815000000     3.377000000     0.003000000
