144
-2817.55224
O    -4.047000000     5.099000000     3.344000000
H    -4.496000000     5.914000000     3.121000000
H    -4.361000000     4.468000000     2.696000000
O     2.563000000    -1.039000000     5.171000000
H     2.659000000    -0.205000000     5.632000000
H     2.215000000    -0.799000000     4.312000000
O    -2.153000000    -7.122000000    -1.014000000
H    -2.798000000    -7.703000000    -1.415000000
H    -1.679000000    -6.744000000    -1.755000000
O     5.607000000     4.287000000    -2.355000000
H     5.638000000     3.386000000    -2.675000000
H     4.787000000     4.338000000    -1.863000000
O     6.616000000     1.031000000     2.434000000
H     7.107000000     0.393000000     1.916000000
H     5.717000000     0.704000000     2.427000000
O     0.421000000    -5.283000000     3.410000000
H     0.980000000    -5.999000000     3.711000000
H     0.911000000    -4.489000000     3.625000000
O    -1.987000000     0.197000000    -2.391000000
H    -2.919000000    -0.016000000    -2.340000000
H    -1.554000000    -0.510000000    -1.912000000
O    -5.204000000    -3.617000000     1.616000000
H    -5.340000000    -2.724000000     1.299000000
H    -4.476000000    -3.949000000     1.091000000
O     0.179000000     3.430000000     3.180000000
H    -0.161000000     3.580000000     2.298000000
H     1.129000000     3.495000000     3.085000000
O     1.727000000    -0.682000000     2.693000000
H     1.400000000    -0.859000000     1.810000000
H     1.015000000    -0.208000000     3.122000000
O     5.000000000    -1.297000000    -3.029000000
H     5.809000000    -1.778000000    -2.856000000
H     4.465000000    -1.904000000    -3.540000000
O    -1.467000000     5.196000000     4.292000000
H    -0.759000000     4.738000000     3.838000000
H    -2.252000000     4.983000000     3.789000000
O    -3.721000000     4.652000000     0.130000000
H    -3.065000000     5.329000000     0.293000000
H    -3.362000000     3.867000000     0.545000000
O    -3.276000000     2.184000000     6.070000000
H    -4.045000000     2.754000000     6.053000000
H    -3.249000000     1.793000000     5.197000000
O    -6.726000000    -1.427000000     0.360000000
H    -7.032000000    -1.316000000     1.260000000
H    -6.210000000    -0.640000000     0.184000000
O     2.289000000    -8.125000000     0.563000000
H     2.090000000    -7.234000000     0.276000000
H     1.626000000    -8.667000000     0.135000000
O     2.618000000     2.208000000    -4.318000000
H     2.188000000     1.481000000    -4.768000000
H     2.425000000     2.064000000    -3.392000000
O    -4.336000000    -1.242000000     2.950000000
H    -3.772000000    -1.866000000     2.493000000
H    -4.296000000    -1.512000000     3.867000000
O    -4.826000000     0.576000000     0.012000000
H    -4.134000000     0.962000000     0.549000000
H    -5.615000000     1.060000000     0.254000000
O     2.806000000     3.080000000     2.211000000
H     3.266000000     2.344000000     1.808000000
H     3.491000000     3.727000000     2.381000000
O    -0.866000000    -1.625000000    -5.205000000
H    -0.097000000    -1.266000000    -5.648000000
H    -1.355000000    -0.855000000    -4.913000000
O    -5.863000000     4.442000000    -1.747000000
H    -5.434000000     4.633000000    -0.913000000
H    -6.661000000     3.972000000    -1.504000000
O     3.277000000    -3.633000000    -4.058000000
H     3.163000000    -4.429000000    -3.540000000
H     2.539000000    -3.635000000    -4.667000000
O     4.422000000    -6.810000000     1.577000000
H     4.956000000    -7.474000000     2.015000000
H     3.665000000    -7.293000000     1.247000000
O     6.234000000    -3.459000000     2.131000000
H     6.976000000    -3.871000000     1.688000000
H     5.463000000    -3.813000000     1.688000000
O    -2.536000000     3.195000000    -2.124000000
H    -2.318000000     2.283000000    -1.934000000
H    -3.136000000     3.449000000    -1.423000000
O     3.642000000    -5.649000000    -2.234000000
H     3.583000000    -6.521000000    -2.625000000
H     4.581000000    -5.468000000    -2.195000000
O    -0.237000000    -6.291000000    -2.938000000
H     0.436000000    -6.384000000    -3.612000000
H    -0.401000000    -5.349000000    -2.892000000
O     1.480000000    -5.963000000    -0.567000000
H     0.621000000    -5.724000000    -0.915000000
H     2.099000000    -5.678000000    -1.240000000
O    -1.163000000    -3.620000000    -2.964000000
H    -0.762000000    -2.927000000    -3.489000000
H    -2.063000000    -3.674000000    -3.286000000
O     3.074000000     5.184000000    -1.281000000
H     2.135000000     5.369000000    -1.293000000
H     3.411000000     5.700000000    -0.549000000
O    -1.922000000    -3.620000000     4.604000000
H    -1.545000000    -3.193000000     5.374000000
H    -1.251000000    -4.243000000     4.324000000
O    -2.411000000     0.534000000    -5.119000000
H    -2.292000000     1.436000000    -5.416000000
H    -2.399000000     0.592000000    -4.164000000
O    -0.413000000     0.571000000     4.043000000
H    -0.555000000     1.499000000     3.854000000
H    -1.254000000     0.264000000     4.383000000
O    -1.157000000    -5.347000000     0.988000000
H    -1.254000000    -6.241000000     0.660000000
H    -0.590000000    -5.433000000     1.754000000
O    -6.836000000     1.835000000     1.326000000
H    -6.866000000     2.721000000     0.965000000
H    -7.752000000     1.618000000     1.503000000
O    -3.167000000    -4.006000000    -0.133000000
H    -2.373000000    -4.321000000     0.297000000
H    -2.984000000    -4.095000000    -1.069000000
O     4.991000000    -1.433000000    -0.160000000
H     5.045000000    -1.233000000    -1.094000000
H     4.633000000    -2.321000000    -0.126000000
O     5.371000000     1.298000000    -2.342000000
H     5.727000000     0.940000000    -1.529000000
H     5.179000000     0.529000000    -2.879000000
O    -0.124000000     7.678000000    -1.589000000
H     0.104000000     8.201000000    -0.821000000
H     0.074000000     6.777000000    -1.333000000
O    -3.298000000     1.417000000     3.389000000
H    -3.475000000     0.509000000     3.145000000
H    -3.189000000     1.872000000     2.554000000
O     4.078000000     0.249000000     2.011000000
H     4.176000000     0.002000000     1.092000000
H     3.216000000    -0.085000000     2.258000000
O     2.760000000    -3.562000000     3.254000000
H     2.836000000    -2.654000000     3.545000000
H     2.757000000    -3.508000000     2.298000000
O    -3.924000000    -3.186000000    -2.847000000
H    -4.527000000    -3.401000000    -2.134000000
H    -4.126000000    -2.276000000    -3.065000000
O    -6.184000000     1.188000000     4.296000000
H    -5.292000000     1.038000000     3.981000000
H    -6.692000000     1.360000000     3.504000000
O     4.143000000    -4.328000000     0.449000000
H     4.187000000    -5.078000000     1.041000000
H     3.605000000    -4.631000000    -0.283000000
O    -4.577000000    -0.533000000    -2.666000000
H    -5.247000000    -0.256000000    -3.290000000
H    -4.951000000    -0.331000000    -1.808000000
O     0.242000000     4.907000000    -1.100000000
H    -0.255000000     4.344000000    -1.693000000
H    -0.066000000     4.666000000    -0.227000000
