144
-2818.53420
O    -0.661000000    -3.754000000     6.730000000
H    -0.516000000    -3.484000000     7.637000000
H    -1.386000000    -4.377000000     6.779000000
O     0.810000000     3.764000000    -4.359000000
H     1.104000000     4.556000000    -4.808000000
H     0.823000000     3.996000000    -3.430000000
O    -3.374000000    -5.300000000     2.751000000
H    -3.784000000    -4.492000000     3.061000000
H    -2.448000000    -5.077000000     2.652000000
O     0.090000000    -1.974000000    -1.872000000
H     0.656000000    -1.580000000    -2.535000000
H    -0.080000000    -1.267000000    -1.250000000
O     1.698000000    -3.958000000     5.199000000
H     1.517000000    -3.516000000     4.370000000
H     0.854000000    -3.973000000     5.651000000
O     4.084000000    -1.506000000     3.691000000
H     4.624000000    -1.154000000     2.983000000
H     3.431000000    -2.047000000     3.247000000
O     5.131000000    -7.182000000     2.872000000
H     4.590000000    -6.408000000     2.717000000
H     5.527000000    -7.372000000     2.022000000
O    -6.889000000     4.081000000    -0.549000000
H    -7.424000000     3.902000000     0.224000000
H    -6.104000000     3.547000000    -0.427000000
O    -3.056000000     1.870000000     3.201000000
H    -2.201000000     2.161000000     3.517000000
H    -3.028000000     2.027000000     2.257000000
O     7.490000000    -2.019000000     1.284000000
H     7.458000000    -2.888000000     0.885000000
H     6.592000000    -1.853000000     1.569000000
O     0.053000000     2.460000000    -6.690000000
H     0.689000000     1.871000000    -7.096000000
H     0.482000000     2.759000000    -5.888000000
O     3.367000000    -3.154000000    -3.219000000
H     2.912000000    -3.981000000    -3.376000000
H     4.167000000    -3.405000000    -2.758000000
O    -1.594000000    -3.299000000     0.359000000
H    -1.117000000    -3.984000000     0.827000000
H    -0.910000000    -2.770000000    -0.052000000
O    -4.373000000    -0.174000000    -2.645000000
H    -5.216000000     0.049000000    -3.041000000
H    -4.543000000    -0.982000000    -2.161000000
O     3.054000000     2.782000000    -0.839000000
H     3.699000000     2.713000000    -0.136000000
H     3.499000000     2.425000000    -1.608000000
O    -0.817000000     6.584000000    -3.816000000
H    -0.247000000     7.314000000    -3.573000000
H    -0.276000000     6.037000000    -4.385000000
O     3.511000000    -4.711000000     2.802000000
H     2.910000000    -4.827000000     3.537000000
H     2.979000000    -4.304000000     2.118000000
O     3.995000000     2.936000000     1.947000000
H     4.321000000     3.602000000     1.341000000
H     4.654000000     2.900000000     2.640000000
O     2.727000000     1.839000000    -3.805000000
H     3.505000000     2.382000000    -3.929000000
H     2.007000000     2.374000000    -4.139000000
O    -0.840000000    -0.203000000    -5.310000000
H    -0.224000000    -0.476000000    -4.630000000
H    -0.286000000     0.131000000    -6.015000000
O     1.692000000    -0.896000000    -3.781000000
H     2.360000000    -1.568000000    -3.642000000
H     2.187000000    -0.082000000    -3.873000000
O    -3.565000000     4.236000000    -5.085000000
H    -3.398000000     3.342000000    -4.787000000
H    -2.791000000     4.465000000    -5.599000000
O     6.010000000     0.389000000    -0.831000000
H     6.367000000    -0.332000000    -1.349000000
H     5.479000000    -0.038000000    -0.159000000
O     2.403000000     0.354000000     5.106000000
H     2.163000000     0.883000000     4.346000000
H     3.081000000    -0.238000000     4.781000000
O    -3.406000000     1.592000000    -4.596000000
H    -2.605000000     1.159000000    -4.890000000
H    -3.832000000     0.949000000    -4.029000000
O    -3.246000000    -4.438000000    -1.707000000
H    -4.162000000    -4.514000000    -1.439000000
H    -2.796000000    -4.110000000    -0.928000000
O    -3.561000000    -0.712000000     4.583000000
H    -3.506000000     0.027000000     3.977000000
H    -2.653000000    -0.892000000     4.825000000
O     0.177000000    -0.026000000     6.786000000
H    -0.256000000    -0.716000000     6.283000000
H     0.932000000     0.221000000     6.252000000
O     2.532000000    -4.518000000    -0.205000000
H     1.955000000    -4.188000000    -0.894000000
H     2.602000000    -3.794000000     0.416000000
O    -3.629000000     4.428000000    -0.350000000
H    -3.449000000     4.545000000    -1.283000000
H    -3.837000000     3.498000000    -0.260000000
O     0.850000000     3.532000000     0.786000000
H     1.348000000     3.001000000     0.165000000
H    -0.039000000     3.543000000     0.433000000
O     1.622000000    -7.278000000     0.552000000
H     1.431000000    -7.861000000    -0.183000000
H     1.934000000    -6.471000000     0.143000000
O     5.220000000    -5.768000000     0.157000000
H     5.064000000    -6.711000000     0.118000000
H     4.345000000    -5.383000000     0.222000000
O    -0.555000000    -4.629000000     2.797000000
H    -0.171000000    -5.227000000     3.439000000
H     0.065000000    -3.901000000     2.748000000
O    -5.483000000    -2.081000000    -1.153000000
H    -6.302000000    -2.400000000    -0.775000000
H    -4.881000000    -2.028000000    -0.411000000
O     1.601000000     1.355000000     2.796000000
H     2.180000000     1.965000000     2.341000000
H     1.154000000     0.880000000     2.096000000
O     4.659000000    -1.603000000     0.197000000
H     3.992000000    -2.018000000     0.743000000
H     4.758000000    -2.193000000    -0.550000000
O    -3.524000000     6.017000000    -2.952000000
H    -3.668000000     5.498000000    -3.744000000
H    -2.649000000     6.389000000    -3.066000000
O    -4.656000000    -2.932000000     3.325000000
H    -4.228000000    -2.118000000     3.593000000
H    -5.592000000    -2.735000000     3.370000000
O    -0.877000000     5.676000000    -0.738000000
H    -1.695000000     6.160000000    -0.622000000
H    -0.801000000     5.558000000    -1.685000000
O    -6.148000000     0.973000000     1.517000000
H    -6.172000000     1.636000000     2.207000000
H    -6.792000000     0.320000000     1.790000000
O    -1.053000000    -1.705000000     4.668000000
H    -0.298000000    -2.011000000     4.166000000
H    -1.312000000    -2.461000000     5.195000000
O     1.793000000     4.860000000    -2.230000000
H     1.996000000     5.567000000    -1.617000000
H     2.173000000     4.078000000    -1.828000000
O    -0.882000000    -3.964000000    -3.163000000
H    -0.509000000    -3.293000000    -2.591000000
H    -1.697000000    -4.220000000    -2.731000000
O    -0.347000000     2.512000000     4.102000000
H    -0.001000000     3.396000000     4.222000000
H     0.371000000     2.026000000     3.698000000
O     5.627000000    -3.486000000    -1.316000000
H     6.420000000    -3.174000000    -1.753000000
H     5.901000000    -4.282000000    -0.860000000
O    -4.679000000     1.680000000    -0.545000000
H    -5.107000000     1.315000000     0.230000000
H    -4.632000000     0.947000000    -1.159000000
O    -3.936000000    -1.705000000     0.914000000
H    -3.128000000    -2.117000000     0.608000000
H    -4.006000000    -1.968000000     1.832000000
