144
-2817.27827
O    -3.140000000    -2.255000000     5.604000000
H    -2.818000000    -2.915000000     4.990000000
H    -2.348000000    -1.879000000     5.988000000
O    -0.911000000     2.958000000    -4.535000000
H    -0.021000000     3.313000000    -4.523000000
H    -1.406000000     3.537000000    -3.956000000
O    -0.893000000     6.694000000    -0.694000000
H     0.054000000     6.824000000    -0.748000000
H    -1.145000000     6.401000000    -1.569000000
O    -2.186000000    -2.592000000    -4.285000000
H    -3.066000000    -2.483000000    -4.645000000
H    -2.297000000    -2.477000000    -3.341000000
O    -2.174000000    -3.771000000     3.527000000
H    -2.385000000    -3.146000000     2.833000000
H    -1.226000000    -3.886000000     3.465000000
O     4.236000000     1.527000000     0.528000000
H     4.768000000     1.788000000     1.279000000
H     3.847000000     2.343000000     0.214000000
O     2.359000000     5.467000000     3.227000000
H     1.697000000     6.120000000     3.000000000
H     2.296000000     4.812000000     2.532000000
O    -5.820000000     0.839000000    -0.201000000
H    -5.314000000     0.551000000     0.559000000
H    -5.865000000     0.068000000    -0.766000000
O    -2.539000000    -3.030000000    -1.572000000
H    -3.246000000    -2.930000000    -0.934000000
H    -2.416000000    -3.976000000    -1.647000000
O     4.079000000    -0.992000000     3.112000000
H     4.408000000    -1.606000000     3.769000000
H     3.273000000    -1.396000000     2.789000000
O     0.507000000     5.567000000    -3.199000000
H     0.558000000     6.281000000    -3.834000000
H     1.242000000     4.995000000    -3.421000000
O     6.714000000     1.051000000     2.090000000
H     5.921000000     0.531000000     2.225000000
H     7.393000000     0.405000000     1.893000000
O    -0.008000000    -4.428000000     6.842000000
H    -0.678000000    -5.069000000     6.603000000
H     0.440000000    -4.233000000     6.019000000
O     0.800000000    -3.256000000    -2.435000000
H     0.303000000    -2.539000000    -2.042000000
H     1.538000000    -2.827000000    -2.867000000
O    -2.613000000    -5.190000000     0.454000000
H    -2.203000000    -4.401000000     0.810000000
H    -3.396000000    -5.315000000     0.989000000
O    -4.011000000    -2.484000000     1.226000000
H    -4.702000000    -2.984000000     0.793000000
H    -4.454000000    -1.707000000     1.566000000
O    -4.427000000     2.320000000    -2.273000000
H    -4.180000000     1.539000000    -2.767000000
H    -5.134000000     2.027000000    -1.698000000
O     2.302000000    -7.191000000     1.914000000
H     3.096000000    -7.657000000     1.654000000
H     1.817000000    -7.071000000     1.097000000
O     4.934000000     2.477000000    -2.734000000
H     5.702000000     1.954000000    -2.506000000
H     5.147000000     2.858000000    -3.585000000
O     1.944000000     6.852000000    -1.001000000
H     2.015000000     7.806000000    -1.037000000
H     2.724000000     6.537000000    -1.458000000
O     3.152000000    -1.805000000    -1.841000000
H     3.970000000    -1.445000000    -1.498000000
H     2.466000000    -1.303000000    -1.402000000
O    -3.028000000     7.357000000    -3.244000000
H    -2.741000000     6.447000000    -3.164000000
H    -3.586000000     7.500000000    -2.479000000
O     3.992000000    -3.943000000     1.047000000
H     3.374000000    -3.535000000     1.654000000
H     3.440000000    -4.334000000     0.370000000
O     3.200000000     3.594000000    -1.309000000
H     3.814000000     3.077000000    -1.831000000
H     3.677000000     4.399000000    -1.106000000
O     0.411000000    -0.165000000    -3.189000000
H     0.404000000     0.145000000    -2.284000000
H     0.028000000     0.553000000    -3.692000000
O     4.683000000    -3.360000000     4.366000000
H     3.925000000    -3.160000000     4.916000000
H     4.589000000    -4.289000000     4.157000000
O     2.215000000     2.521000000     5.362000000
H     3.002000000     3.061000000     5.290000000
H     1.925000000     2.399000000     4.458000000
O    -3.597000000     4.701000000    -2.822000000
H    -4.422000000     5.180000000    -2.902000000
H    -3.843000000     3.866000000    -2.422000000
O    -5.953000000     5.979000000    -0.755000000
H    -6.662000000     5.348000000    -0.882000000
H    -5.178000000     5.439000000    -0.598000000
O    -0.880000000     0.855000000    -6.146000000
H    -1.585000000     0.225000000    -5.996000000
H    -1.068000000     1.573000000    -5.542000000
O    -2.013000000     0.298000000     3.836000000
H    -2.096000000     0.226000000     4.787000000
H    -1.069000000     0.292000000     3.677000000
O     1.888000000    -5.051000000    -0.166000000
H     1.640000000    -4.343000000    -0.761000000
H     1.363000000    -4.897000000     0.620000000
O    -4.006000000     2.720000000     1.087000000
H    -3.878000000     3.628000000     0.813000000
H    -3.976000000     2.218000000     0.272000000
O     1.412000000     4.530000000     0.801000000
H     1.907000000     4.196000000     0.052000000
H     0.963000000     5.305000000     0.465000000
O     1.343000000    -7.333000000     4.413000000
H     0.535000000    -7.753000000     4.118000000
H     1.914000000    -7.347000000     3.645000000
O     6.497000000    -2.835000000     0.950000000
H     5.675000000    -3.163000000     1.314000000
H     6.230000000    -2.168000000     0.318000000
O     0.821000000    -4.282000000     4.026000000
H     0.889000000    -5.228000000     3.901000000
H     0.981000000    -3.914000000     3.157000000
O    -1.783000000     4.404000000    -7.025000000
H    -2.694000000     4.113000000    -7.079000000
H    -1.380000000     3.812000000    -6.390000000
O    -1.227000000    -7.277000000    -0.722000000
H    -0.400000000    -7.440000000    -0.268000000
H    -1.592000000    -6.507000000    -0.286000000
O    -5.715000000    -1.708000000    -1.334000000
H    -6.582000000    -1.637000000    -0.935000000
H    -5.846000000    -2.271000000    -2.097000000
O     1.157000000     1.979000000     2.937000000
H     0.217000000     2.117000000     2.825000000
H     1.515000000     2.036000000     2.051000000
O     5.321000000    -0.498000000    -1.013000000
H     4.836000000     0.182000000    -0.544000000
H     5.965000000    -0.017000000    -1.533000000
O    -3.304000000     5.374000000     0.355000000
H    -2.584000000     5.884000000    -0.016000000
H    -3.522000000     5.826000000     1.170000000
O    -1.655000000     2.816000000     2.659000000
H    -1.996000000     2.708000000     3.547000000
H    -2.436000000     2.884000000     2.109000000
O     0.927000000    -0.601000000     4.772000000
H     1.477000000    -1.111000000     4.176000000
H     1.180000000     0.308000000     4.613000000
O     2.108000000     3.405000000    -4.110000000
H     2.541000000     2.727000000    -4.629000000
H     2.140000000     3.077000000    -3.212000000
O    -4.686000000     0.001000000     2.302000000
H    -5.366000000     0.213000000     2.943000000
H    -3.868000000     0.045000000     2.798000000
O     2.121000000     5.374000000    -5.773000000
H     1.776000000     5.019000000    -6.593000000
H     2.144000000     4.624000000    -5.179000000
