144
-2806.95810
O    -0.865000000     2.886000000    -6.036000000
H    -1.808000000     2.797000000    -6.176000000
H    -0.564000000     1.994000000    -5.859000000
O    -0.857000000     4.857000000     0.950000000
H    -1.220000000     4.715000000     1.824000000
H    -0.005000000     5.265000000     1.108000000
O    -1.435000000    -4.928000000    -0.938000000
H    -0.807000000    -4.476000000    -1.501000000
H    -2.261000000    -4.465000000    -1.081000000
O     3.247000000     0.427000000     4.373000000
H     3.476000000     1.332000000     4.162000000
H     2.291000000     0.406000000     4.327000000
O    -4.237000000    -4.795000000     3.262000000
H    -4.106000000    -4.562000000     4.181000000
H    -3.569000000    -5.458000000     3.086000000
O     2.442000000    -3.957000000     2.410000000
H     2.032000000    -4.079000000     1.553000000
H     2.907000000    -3.123000000     2.336000000
O    -5.371000000     0.701000000     5.457000000
H    -4.743000000     1.304000000     5.854000000
H    -4.900000000    -0.130000000     5.394000000
O    -1.620000000    -2.329000000     5.648000000
H    -1.386000000    -1.840000000     4.859000000
H    -0.788000000    -2.462000000     6.102000000
O    -3.482000000     2.783000000    -5.672000000
H    -4.145000000     2.098000000    -5.760000000
H    -3.386000000     2.903000000    -4.727000000
O     1.958000000     4.065000000    -1.617000000
H     2.373000000     4.681000000    -1.013000000
H     2.655000000     3.453000000    -1.851000000
O     0.888000000     5.737000000    -3.807000000
H     0.389000000     5.263000000    -3.142000000
H     1.370000000     6.402000000    -3.315000000
O    -3.899000000    -4.067000000    -1.356000000
H    -4.143000000    -3.360000000    -1.954000000
H    -4.734000000    -4.428000000    -1.058000000
O     2.361000000     0.604000000    -5.738000000
H     2.427000000     0.599000000    -6.693000000
H     2.438000000     1.527000000    -5.497000000
O     0.658000000     4.075000000     6.492000000
H     0.672000000     3.144000000     6.267000000
H     0.074000000     4.130000000     7.248000000
O     0.130000000    -4.198000000     3.783000000
H    -0.278000000    -3.343000000     3.649000000
H     0.773000000    -4.270000000     3.077000000
O    -2.291000000     2.277000000     0.365000000
H    -2.123000000     3.205000000     0.526000000
H    -1.424000000     1.871000000     0.371000000
O     4.207000000     2.741000000     1.296000000
H     3.516000000     3.391000000     1.421000000
H     4.456000000     2.830000000     0.376000000
O     5.093000000    -3.120000000    -0.254000000
H     4.332000000    -2.541000000    -0.292000000
H     5.775000000    -2.594000000     0.163000000
O     3.558000000    -1.604000000     6.086000000
H     3.646000000    -2.505000000     5.776000000
H     3.557000000    -1.075000000     5.288000000
O    -1.484000000     0.250000000    -7.108000000
H    -1.122000000     0.116000000    -7.984000000
H    -0.758000000     0.052000000    -6.517000000
O     4.482000000     2.675000000     4.043000000
H     4.791000000     3.218000000     4.768000000
H     4.213000000     3.302000000     3.372000000
O     6.198000000     0.317000000    -1.283000000
H     6.522000000     0.851000000    -2.007000000
H     5.286000000     0.134000000    -1.509000000
O     2.176000000    -1.823000000    -4.460000000
H     2.560000000    -2.395000000    -5.124000000
H     2.369000000    -0.937000000    -4.766000000
O     1.675000000    -4.583000000    -0.108000000
H     1.485000000    -3.897000000    -0.748000000
H     1.850000000    -5.362000000    -0.636000000
O     2.998000000     5.586000000     0.321000000
H     2.532000000     6.422000000     0.317000000
H     3.921000000     5.826000000     0.399000000
O     4.269000000     2.419000000    -1.979000000
H     5.053000000     2.511000000    -2.521000000
H     3.947000000     1.539000000    -2.173000000
O    -3.004000000    -1.370000000    -5.264000000
H    -3.648000000    -0.927000000    -4.711000000
H    -2.737000000    -0.706000000    -5.900000000
O    -3.344000000     3.600000000    -2.772000000
H    -2.425000000     3.867000000    -2.750000000
H    -3.525000000     3.291000000    -1.884000000
O     2.468000000     3.241000000    -4.885000000
H     2.800000000     4.137000000    -4.832000000
H     1.548000000     3.310000000    -4.628000000
O    -3.956000000     0.598000000    -1.205000000
H    -3.320000000     1.051000000    -0.651000000
H    -4.722000000     0.479000000    -0.643000000
O    -0.745000000    -6.400000000     1.577000000
H    -0.254000000    -5.709000000     2.022000000
H    -1.110000000    -5.974000000     0.802000000
O     0.969000000    -3.567000000    -2.530000000
H     1.295000000    -2.755000000    -2.917000000
H     0.692000000    -4.095000000    -3.279000000
O     4.768000000     2.883000000    -6.789000000
H     5.372000000     3.585000000    -6.546000000
H     4.062000000     2.940000000    -6.145000000
O    -1.994000000     1.341000000     4.799000000
H    -1.386000000     0.825000000     4.269000000
H    -1.590000000     1.373000000     5.666000000
O     0.567000000    -4.989000000    -4.945000000
H     0.221000000    -4.554000000    -5.725000000
H     1.368000000    -5.419000000    -5.246000000
O    -0.447000000    -5.681000000     5.737000000
H    -0.271000000    -5.114000000     6.489000000
H    -0.219000000    -5.147000000     4.976000000
O    -4.543000000     0.068000000    -3.668000000
H    -4.930000000    -0.677000000    -3.209000000
H    -4.081000000     0.556000000    -2.986000000
O    -1.146000000    -6.603000000    -3.154000000
H    -1.034000000    -5.947000000    -2.466000000
H    -0.708000000    -6.227000000    -3.918000000
O     0.746000000     1.257000000     6.262000000
H     1.052000000     0.556000000     6.838000000
H     0.692000000     0.850000000     5.398000000
O     3.904000000    -1.755000000     2.523000000
H     3.750000000    -1.117000000     3.220000000
H     4.681000000    -2.236000000     2.806000000
O     3.052000000    -1.510000000     0.024000000
H     2.111000000    -1.343000000     0.081000000
H     3.360000000    -1.456000000     0.929000000
O    -0.801000000     4.498000000    -1.851000000
H     0.082000000     4.138000000    -1.944000000
H    -0.878000000     4.707000000    -0.920000000
O    -1.679000000     4.374000000     3.242000000
H    -1.136000000     3.812000000     3.795000000
H    -2.569000000     4.247000000     3.571000000
O    -2.842000000    -1.184000000     7.585000000
H    -2.065000000    -0.667000000     7.799000000
H    -2.615000000    -1.631000000     6.770000000
O     3.828000000    -0.557000000    -2.395000000
H     3.715000000    -1.145000000    -1.649000000
H     3.282000000    -0.937000000    -3.084000000
O    -3.613000000    -4.360000000     5.973000000
H    -3.499000000    -5.249000000     6.308000000
H    -2.731000000    -3.989000000     5.972000000
O     1.238000000    -1.951000000     7.447000000
H     1.710000000    -2.477000000     8.092000000
H     1.809000000    -1.945000000     6.679000000
O    -3.990000000    -1.631000000     3.200000000
H    -4.103000000    -1.411000000     2.275000000
H    -3.075000000    -1.421000000     3.386000000
