144
-2803.26867
O    -3.131000000    -3.366000000     3.043000000
H    -3.317000000    -2.700000000     2.381000000
H    -3.973000000    -3.518000000     3.473000000
O     0.223000000     2.443000000    -5.925000000
H     0.608000000     1.588000000    -6.118000000
H     0.737000000     3.060000000    -6.446000000
O    -2.564000000    -4.500000000    -1.860000000
H    -2.137000000    -5.292000000    -2.186000000
H    -2.598000000    -4.620000000    -0.911000000
O     4.595000000    -0.026000000     3.630000000
H     4.949000000    -0.854000000     3.305000000
H     3.667000000    -0.056000000     3.398000000
O    -0.247000000     3.267000000     3.760000000
H    -0.308000000     3.945000000     3.088000000
H    -1.089000000     3.300000000     4.212000000
O    -0.190000000    -3.339000000    -2.699000000
H    -0.074000000    -3.524000000    -1.767000000
H    -1.139000000    -3.320000000    -2.823000000
O    -0.870000000    -4.903000000     2.847000000
H    -1.721000000    -4.525000000     3.070000000
H    -0.296000000    -4.146000000     2.728000000
O     5.264000000    -2.196000000     1.960000000
H     5.595000000    -3.083000000     1.817000000
H     4.312000000    -2.286000000     1.922000000
O    -3.078000000     4.986000000    -3.269000000
H    -2.206000000     4.609000000    -3.154000000
H    -3.672000000     4.237000000    -3.216000000
O     3.838000000     2.741000000     3.700000000
H     4.483000000     2.210000000     4.168000000
H     3.931000000     2.477000000     2.784000000
O    -0.778000000    -7.095000000     1.084000000
H    -0.348000000    -7.883000000     1.416000000
H    -0.696000000    -6.459000000     1.794000000
O    -4.343000000     2.701000000    -3.467000000
H    -4.833000000     1.884000000    -3.372000000
H    -3.718000000     2.524000000    -4.171000000
O     4.282000000    -0.953000000    -3.443000000
H     4.196000000    -1.013000000    -2.492000000
H     3.933000000    -1.783000000    -3.768000000
O    -0.710000000     6.597000000    -5.167000000
H    -1.596000000     6.308000000    -5.387000000
H    -0.335000000     5.865000000    -4.677000000
O    -0.020000000     4.424000000    -3.715000000
H     0.532000000     4.128000000    -2.991000000
H     0.180000000     3.821000000    -4.431000000
O     2.894000000    -4.778000000     2.152000000
H     2.170000000    -4.217000000     2.428000000
H     3.270000000    -4.329000000     1.395000000
O     2.835000000     3.648000000    -1.965000000
H     3.563000000     4.214000000    -2.222000000
H     2.819000000     2.961000000    -2.633000000
O    -5.748000000     0.298000000    -2.414000000
H    -5.540000000     0.228000000    -1.482000000
H    -6.641000000    -0.037000000    -2.486000000
O     4.124000000     2.783000000     1.086000000
H     4.782000000     3.477000000     1.037000000
H     3.704000000     2.791000000     0.226000000
O     1.345000000    -4.283000000    -0.163000000
H     1.005000000    -4.301000000     0.732000000
H     2.184000000    -3.828000000    -0.091000000
O     2.923000000     1.234000000    -4.568000000
H     3.658000000     0.649000000    -4.383000000
H     2.149000000     0.734000000    -4.310000000
O    -2.562000000     2.124000000    -5.307000000
H    -1.625000000     1.943000000    -5.375000000
H    -2.747000000     2.710000000    -6.041000000
O     4.569000000    -3.311000000     5.013000000
H     3.803000000    -2.758000000     4.862000000
H     4.237000000    -4.206000000     4.933000000
O     2.183000000    -1.766000000     4.795000000
H     1.931000000    -0.915000000     4.435000000
H     1.709000000    -2.402000000     4.260000000
O     0.996000000    -0.810000000    -3.403000000
H     0.800000000    -0.468000000    -2.531000000
H     0.854000000    -1.754000000    -3.328000000
O    -4.714000000    -2.741000000    -2.307000000
H    -4.120000000    -3.475000000    -2.149000000
H    -5.368000000    -2.809000000    -1.612000000
O     6.306000000     1.796000000    -2.389000000
H     6.999000000     2.453000000    -2.327000000
H     5.573000000     2.257000000    -2.795000000
O     3.861000000    -1.905000000    -0.951000000
H     4.357000000    -2.708000000    -0.789000000
H     3.252000000    -1.847000000    -0.215000000
O    -3.790000000     6.091000000    -0.225000000
H    -3.293000000     6.504000000     0.481000000
H    -3.130000000     5.858000000    -0.878000000
O     1.484000000     5.467000000    -0.482000000
H     2.072000000     6.065000000    -0.020000000
H     2.048000000     4.748000000    -0.767000000
O     3.202000000    -7.433000000     2.153000000
H     2.897000000    -7.636000000     1.268000000
H     3.121000000    -6.482000000     2.222000000
O    -0.400000000     5.380000000     1.952000000
H    -0.795000000     6.183000000     1.614000000
H    -0.026000000     4.953000000     1.181000000
O     1.010000000     0.838000000     3.649000000
H     0.140000000     0.599000000     3.329000000
H     1.074000000     1.779000000     3.489000000
O     4.516000000    -4.662000000    -0.206000000
H     5.428000000    -4.672000000     0.083000000
H     4.530000000    -5.092000000    -1.061000000
O     0.604000000    -6.341000000     4.494000000
H     0.227000000    -5.692000000     3.900000000
H     0.426000000    -5.995000000     5.369000000
O     2.953000000     3.756000000    -5.383000000
H     2.847000000     2.814000000    -5.251000000
H     3.596000000     3.828000000    -6.088000000
O     1.029000000    -6.134000000    -2.124000000
H     1.143000000    -5.586000000    -1.348000000
H     0.758000000    -5.524000000    -2.811000000
O     6.016000000     0.138000000     1.121000000
H     5.823000000    -0.649000000     1.631000000
H     5.295000000     0.735000000     1.323000000
O    -4.640000000    -1.495000000     1.328000000
H    -4.933000000    -0.598000000     1.490000000
H    -5.237000000    -1.824000000     0.656000000
O    -1.151000000     6.125000000    -1.125000000
H    -1.137000000     6.751000000    -1.849000000
H    -0.234000000     5.878000000    -1.004000000
O    -4.589000000     1.872000000     0.176000000
H    -4.011000000     2.562000000     0.502000000
H    -5.137000000     1.645000000     0.926000000
O    -1.979000000    -1.549000000     4.969000000
H    -2.171000000    -2.345000000     4.472000000
H    -1.725000000    -0.908000000     4.305000000
O    -1.743000000     0.646000000     3.405000000
H    -2.497000000     1.040000000     3.843000000
H    -1.688000000     1.103000000     2.565000000
O    -3.414000000    -0.881000000    -3.836000000
H    -3.303000000    -0.120000000    -3.266000000
H    -4.062000000    -1.424000000    -3.387000000
O    -2.892000000    -2.206000000    -5.953000000
H    -3.828000000    -2.209000000    -6.156000000
H    -2.830000000    -1.744000000    -5.117000000
O    -3.592000000     3.072000000     2.417000000
H    -3.333000000     3.982000000     2.562000000
H    -4.009000000     2.808000000     3.236000000
O    -6.206000000     3.403000000    -1.403000000
H    -5.774000000     3.519000000    -2.249000000
H    -5.652000000     2.777000000    -0.936000000
O    -3.222000000    -5.417000000     0.755000000
H    -2.379000000    -5.827000000     0.950000000
H    -3.418000000    -4.893000000     1.532000000
