144
-2819.86611
O     3.281000000     2.423000000     3.133000000
H     4.186000000     2.270000000     2.860000000
H     3.109000000     1.742000000     3.783000000
O     1.892000000     4.019000000     1.181000000
H     0.937000000     3.966000000     1.225000000
H     2.192000000     3.139000000     1.407000000
O    -5.973000000     2.503000000    -0.828000000
H    -5.234000000     3.092000000    -0.986000000
H    -5.649000000     1.882000000    -0.176000000
O     6.068000000    -1.835000000    -3.412000000
H     6.538000000    -2.406000000    -4.019000000
H     5.144000000    -2.032000000    -3.563000000
O    -5.777000000     3.066000000    -3.655000000
H    -5.108000000     2.393000000    -3.526000000
H    -6.259000000     3.087000000    -2.828000000
O     3.485000000    -0.579000000    -4.077000000
H     2.869000000     0.118000000    -4.303000000
H     3.440000000    -1.187000000    -4.815000000
O    -0.785000000     6.541000000     0.986000000
H    -0.983000000     5.606000000     0.953000000
H    -0.097000000     6.664000000     0.333000000
O     0.341000000     3.409000000     3.633000000
H     0.475000000     4.300000000     3.955000000
H     1.225000000     3.056000000     3.529000000
O    -5.624000000     2.563000000     2.133000000
H    -5.668000000     3.498000000     1.932000000
H    -4.882000000     2.242000000     1.622000000
O     1.322000000     1.030000000    -4.642000000
H     0.704000000     0.308000000    -4.757000000
H     0.888000000     1.783000000    -5.043000000
O    -2.681000000     4.389000000     1.320000000
H    -2.871000000     3.520000000     0.966000000
H    -3.524000000     4.841000000     1.312000000
O     6.202000000    -0.116000000    -1.321000000
H     6.451000000    -0.581000000    -2.119000000
H     5.450000000    -0.604000000    -0.985000000
O     0.609000000    -0.834000000     3.690000000
H     0.571000000    -0.768000000     2.736000000
H     1.069000000    -1.656000000     3.855000000
O    -2.017000000     2.058000000     3.503000000
H    -2.596000000     2.177000000     2.750000000
H    -1.346000000     2.732000000     3.399000000
O    -4.474000000    -3.367000000    -0.476000000
H    -5.023000000    -3.399000000    -1.259000000
H    -5.096000000    -3.318000000     0.251000000
O    -1.495000000     3.343000000    -2.388000000
H    -1.428000000     2.395000000    -2.495000000
H    -0.595000000     3.633000000    -2.241000000
O     1.273000000    -4.987000000     2.167000000
H     0.607000000    -4.560000000     1.630000000
H     0.804000000    -5.691000000     2.615000000
O    -1.320000000    -6.344000000    -1.104000000
H    -1.282000000    -5.410000000    -1.310000000
H    -0.500000000    -6.699000000    -1.448000000
O     3.083000000    -3.059000000    -2.422000000
H     3.175000000    -2.107000000    -2.467000000
H     2.846000000    -3.319000000    -3.312000000
O    -1.898000000    -3.542000000    -1.395000000
H    -1.926000000    -3.064000000    -2.224000000
H    -2.778000000    -3.441000000    -1.031000000
O    -3.481000000     1.327000000    -3.251000000
H    -3.607000000     0.806000000    -2.458000000
H    -3.533000000     0.692000000    -3.965000000
O     5.348000000    -6.572000000     0.874000000
H     4.913000000    -5.863000000     0.400000000
H     6.273000000    -6.328000000     0.874000000
O    -3.913000000     3.486000000     5.325000000
H    -3.318000000     2.980000000     4.771000000
H    -3.511000000     3.460000000     6.194000000
O     1.833000000    -2.857000000     4.528000000
H     1.955000000    -3.377000000     3.734000000
H     2.715000000    -2.569000000     4.764000000
O     3.003000000    -4.791000000    -0.158000000
H     3.102000000    -4.051000000    -0.758000000
H     2.266000000    -4.548000000     0.401000000
O     5.901000000    -4.317000000    -1.218000000
H     4.980000000    -4.371000000    -0.962000000
H     6.257000000    -3.609000000    -0.682000000
O    -1.563000000    -0.099000000     5.387000000
H    -0.969000000    -0.394000000     4.696000000
H    -1.518000000     0.856000000     5.350000000
O    -7.925000000     0.831000000     2.053000000
H    -7.341000000     0.074000000     1.996000000
H    -7.355000000     1.553000000     2.316000000
O    -4.483000000    -0.964000000    -4.398000000
H    -5.130000000    -0.858000000    -3.700000000
H    -5.001000000    -1.183000000    -5.173000000
O    -4.029000000     4.438000000    -1.680000000
H    -3.194000000     3.995000000    -1.831000000
H    -3.787000000     5.280000000    -1.294000000
O     5.946000000     0.919000000     2.051000000
H     6.849000000     0.607000000     2.003000000
H     5.904000000     1.631000000     1.413000000
O    -1.997000000    -2.808000000    -4.000000000
H    -2.842000000    -2.400000000    -4.191000000
H    -1.920000000    -3.512000000    -4.644000000
O     1.581000000     2.489000000    -1.982000000
H     1.356000000     1.813000000    -1.343000000
H     1.738000000     2.007000000    -2.794000000
O    -0.905000000    -0.452000000    -4.838000000
H    -0.742000000    -1.271000000    -4.370000000
H    -1.819000000    -0.512000000    -5.115000000
O     7.471000000    -2.498000000     0.113000000
H     8.315000000    -2.338000000     0.536000000
H     7.200000000    -1.639000000    -0.211000000
O    -5.994000000    -0.405000000    -1.680000000
H    -6.331000000    -1.082000000    -1.092000000
H    -5.254000000    -0.024000000    -1.207000000
O    -8.132000000     1.157000000    -2.797000000
H    -8.098000000     0.899000000    -3.718000000
H    -7.371000000     0.733000000    -2.401000000
O     6.056000000     2.714000000    -0.266000000
H     6.380000000     1.989000000    -0.801000000
H     5.537000000     3.245000000    -0.870000000
O     2.377000000     1.130000000     5.371000000
H     1.782000000     0.583000000     4.857000000
H     2.031000000     1.088000000     6.262000000
O    -4.431000000     5.349000000     3.653000000
H    -5.375000000     5.442000000     3.775000000
H    -4.170000000     4.690000000     4.297000000
O    -5.518000000     5.222000000     0.723000000
H    -6.249000000     5.190000000     0.106000000
H    -4.890000000     5.822000000     0.321000000
O    -5.421000000    -1.227000000     1.237000000
H    -4.706000000    -1.654000000     1.711000000
H    -4.988000000    -0.572000000     0.690000000
O    -1.281000000     2.518000000     6.403000000
H    -0.887000000     3.203000000     5.863000000
H    -1.212000000     2.850000000     7.298000000
O     5.533000000     1.377000000    -3.964000000
H     5.278000000     0.485000000    -3.727000000
H     5.264000000     1.469000000    -4.878000000
O     4.145000000    -1.497000000     2.938000000
H     4.443000000    -2.114000000     3.607000000
H     4.830000000    -0.829000000     2.907000000
O    -5.393000000     0.134000000     4.459000000
H    -4.605000000    -0.409000000     4.479000000
H    -5.294000000     0.671000000     3.673000000
O    -3.450000000    -1.971000000     3.353000000
H    -2.666000000    -1.585000000     3.745000000
H    -3.292000000    -2.914000000     3.380000000
O     0.042000000    -3.397000000     0.462000000
H    -0.490000000    -3.687000000    -0.279000000
H    -0.070000000    -2.447000000     0.480000000
