144
-2829.30762
O    -2.271000000    -3.045000000     3.504000000
H    -2.010000000    -2.228000000     3.080000000
H    -3.163000000    -3.201000000     3.195000000
O    -3.733000000    -6.458000000    -0.474000000
H    -3.798000000    -6.820000000    -1.358000000
H    -2.935000000    -5.930000000    -0.489000000
O    -0.606000000     2.873000000     4.206000000
H    -1.096000000     3.110000000     3.419000000
H    -1.229000000     2.996000000     4.922000000
O    -2.200000000    -4.197000000    -2.275000000
H    -2.205000000    -5.020000000    -2.765000000
H    -1.838000000    -4.430000000    -1.420000000
O     0.254000000    -4.665000000     3.751000000
H    -0.628000000    -4.400000000     3.488000000
H     0.829000000    -4.013000000     3.350000000
O     4.776000000    -1.393000000     1.277000000
H     5.279000000    -2.140000000     1.601000000
H     4.020000000    -1.343000000     1.861000000
O     2.836000000    -6.000000000    -2.699000000
H     3.472000000    -5.393000000    -3.079000000
H     3.028000000    -6.840000000    -3.115000000
O    -1.363000000     4.692000000    -3.717000000
H    -1.869000000     4.923000000    -4.497000000
H    -0.964000000     5.516000000    -3.438000000
O     3.090000000     2.884000000     2.670000000
H     3.564000000     2.681000000     3.477000000
H     3.738000000     3.320000000     2.116000000
O     3.734000000    -2.038000000     6.604000000
H     3.492000000    -2.902000000     6.939000000
H     3.224000000    -1.942000000     5.800000000
O     0.790000000    -4.120000000    -1.993000000
H     0.766000000    -4.114000000    -1.036000000
H     1.361000000    -4.856000000    -2.214000000
O    -6.037000000     1.512000000    -3.783000000
H    -6.347000000     0.606000000    -3.797000000
H    -5.084000000     1.438000000    -3.740000000
O     1.751000000     4.164000000     4.726000000
H     1.028000000     3.544000000     4.629000000
H     2.025000000     4.354000000     3.829000000
O     0.406000000     2.882000000    -4.310000000
H    -0.056000000     2.368000000    -4.972000000
H    -0.243000000     3.513000000    -4.000000000
O     3.431000000    -4.592000000     3.024000000
H     2.778000000    -3.904000000     2.893000000
H     3.798000000    -4.743000000     2.153000000
O    -6.291000000     3.694000000     1.685000000
H    -5.777000000     3.542000000     0.892000000
H    -6.286000000     4.645000000     1.795000000
O     2.849000000     1.759000000    -3.100000000
H     1.932000000     2.022000000    -3.172000000
H     2.819000000     0.891000000    -2.698000000
O    -4.742000000    -1.029000000    -0.962000000
H    -5.175000000    -1.753000000    -0.510000000
H    -5.040000000    -0.245000000    -0.501000000
O     5.079000000     2.810000000    -1.714000000
H     5.688000000     2.939000000    -2.440000000
H     4.288000000     2.459000000    -2.123000000
O     1.320000000    -6.341000000    -0.036000000
H     1.255000000    -5.453000000     0.317000000
H     1.993000000    -6.280000000    -0.714000000
O     1.994000000    -0.481000000    -2.109000000
H     1.274000000    -0.741000000    -2.684000000
H     1.564000000    -0.082000000    -1.353000000
O     0.681000000    -0.461000000    -6.025000000
H     0.417000000    -0.874000000    -5.203000000
H     1.449000000    -0.959000000    -6.308000000
O    -3.528000000     1.415000000    -3.006000000
H    -3.066000000     0.578000000    -3.062000000
H    -2.852000000     2.046000000    -2.758000000
O     2.144000000     5.135000000    -4.298000000
H     1.753000000     4.281000000    -4.487000000
H     2.889000000     5.194000000    -4.895000000
O     2.748000000    -5.600000000     5.533000000
H     2.913000000    -5.252000000     4.657000000
H     1.801000000    -5.732000000     5.564000000
O     2.650000000    -1.523000000     4.147000000
H     1.946000000    -0.875000000     4.118000000
H     2.528000000    -2.043000000     3.352000000
O    -1.627000000    -5.004000000     0.555000000
H    -2.062000000    -4.422000000     1.179000000
H    -0.693000000    -4.843000000     0.690000000
O    -0.058000000    -1.802000000    -3.707000000
H     0.390000000    -2.627000000    -3.519000000
H    -0.959000000    -1.947000000    -3.415000000
O     3.916000000    -2.456000000    -1.043000000
H     4.250000000    -1.903000000    -0.336000000
H     3.290000000    -1.900000000    -1.507000000
O     1.134000000     4.419000000     1.481000000
H     1.637000000     4.769000000     0.746000000
H     1.693000000     3.735000000     1.851000000
O     2.023000000     5.088000000    -1.052000000
H     2.699000000     5.739000000    -1.241000000
H     1.797000000     4.723000000    -1.907000000
O     3.299000000    -7.493000000     3.038000000
H     2.390000000    -7.739000000     3.209000000
H     3.240000000    -6.624000000     2.640000000
O    -2.853000000     4.137000000     2.056000000
H    -2.134000000     4.341000000     1.458000000
H    -3.357000000     4.948000000     2.111000000
O     0.340000000     0.240000000     4.443000000
H    -0.200000000    -0.176000000     3.771000000
H     0.176000000     1.177000000     4.335000000
O     4.668000000    -4.528000000     0.705000000
H     5.618000000    -4.519000000     0.584000000
H     4.341000000    -3.884000000     0.077000000
O     0.599000000    -8.044000000     3.490000000
H     0.253000000    -7.205000000     3.187000000
H    -0.103000000    -8.412000000     4.027000000
O     5.579000000    -5.347000000     4.317000000
H     5.366000000    -5.589000000     5.218000000
H     4.776000000    -4.953000000     3.978000000
O    -0.172000000    -6.816000000    -2.629000000
H    -0.037000000    -6.673000000    -1.692000000
H     0.633000000    -7.241000000    -2.925000000
O     5.904000000     0.333000000    -0.594000000
H     5.603000000    -0.142000000     0.181000000
H     5.315000000     1.084000000    -0.659000000
O     5.083000000     4.032000000     0.623000000
H     4.958000000     3.493000000    -0.157000000
H     5.957000000     3.801000000     0.937000000
O    -0.311000000     6.381000000    -1.205000000
H     0.574000000     6.066000000    -1.020000000
H    -0.338000000     6.469000000    -2.158000000
O    -5.640000000     0.161000000     1.341000000
H    -4.894000000     0.760000000     1.342000000
H    -6.026000000     0.258000000     2.212000000
O    -0.423000000     6.866000000     2.151000000
H    -0.237000000     5.956000000     1.918000000
H    -0.081000000     7.376000000     1.416000000
O    -1.660000000    -0.415000000     2.823000000
H    -2.431000000     0.150000000     2.865000000
H    -1.402000000    -0.400000000     1.901000000
O    -3.153000000    -1.635000000    -3.264000000
H    -3.024000000    -2.512000000    -2.904000000
H    -3.786000000    -1.225000000    -2.675000000
O    -3.108000000    -1.950000000    -6.284000000
H    -3.861000000    -2.538000000    -6.345000000
H    -2.930000000    -1.886000000    -5.346000000
O    -3.357000000     1.355000000     2.259000000
H    -3.433000000     2.266000000     1.976000000
H    -3.647000000     1.362000000     3.171000000
O    -5.763000000     2.430000000    -0.947000000
H    -5.054000000     2.305000000    -1.578000000
H    -6.318000000     1.658000000    -1.055000000
