144
-2781.60222
O     0.587000000     5.625000000    -4.967000000
H     0.507000000     5.752000000    -4.022000000
H    -0.266000000     5.285000000    -5.236000000
O    -1.685000000    -5.629000000    -3.416000000
H    -1.385000000    -5.062000000    -4.127000000
H    -1.659000000    -5.071000000    -2.638000000
O     5.228000000    -3.213000000     4.631000000
H     5.448000000    -2.302000000     4.831000000
H     4.644000000    -3.158000000     3.875000000
O     0.520000000     3.622000000     2.878000000
H     0.425000000     4.489000000     2.485000000
H     0.276000000     3.746000000     3.795000000
O     5.361000000    -1.234000000    -0.574000000
H     5.274000000    -0.653000000    -1.330000000
H     6.277000000    -1.145000000    -0.308000000
O     2.313000000    -1.829000000    -3.463000000
H     1.609000000    -2.337000000    -3.059000000
H     2.089000000    -0.918000000    -3.277000000
O    -0.691000000    -2.818000000     5.179000000
H    -0.879000000    -2.615000000     6.095000000
H    -0.029000000    -2.177000000     4.922000000
O     2.261000000     7.188000000    -2.727000000
H     2.622000000     7.802000000    -3.367000000
H     2.697000000     6.358000000    -2.918000000
O    -4.282000000     1.810000000    -0.738000000
H    -4.317000000     0.989000000    -0.247000000
H    -4.055000000     2.471000000    -0.084000000
O    -2.081000000     5.920000000     1.332000000
H    -1.243000000     5.680000000     0.935000000
H    -1.859000000     6.165000000     2.230000000
O     1.050000000    -0.836000000     4.660000000
H     1.710000000    -0.337000000     5.142000000
H     0.506000000    -0.170000000     4.239000000
O    -4.417000000     5.454000000    -0.981000000
H    -4.204000000     4.759000000    -0.358000000
H    -4.108000000     5.123000000    -1.824000000
O     0.602000000    -4.706000000     3.623000000
H     0.342000000    -4.375000000     2.763000000
H     0.358000000    -4.010000000     4.232000000
O    -2.025000000     5.211000000    -3.412000000
H    -1.614000000     5.470000000    -2.586000000
H    -1.870000000     5.952000000    -3.998000000
O     3.021000000    -4.997000000     5.043000000
H     2.181000000    -4.989000000     4.582000000
H     3.292000000    -4.080000000     5.062000000
O     5.386000000     1.066000000     1.555000000
H     5.223000000     0.617000000     0.725000000
H     4.725000000     1.758000000     1.587000000
O     5.902000000    -3.873000000     0.799000000
H     5.491000000    -3.057000000     0.514000000
H     5.168000000    -4.461000000     0.978000000
O    -2.083000000     2.603000000    -4.309000000
H    -1.548000000     2.952000000    -5.022000000
H    -2.337000000     3.373000000    -3.800000000
O    -3.849000000     3.903000000     1.278000000
H    -3.314000000     4.696000000     1.318000000
H    -3.852000000     3.571000000     2.176000000
O    -2.195000000    -4.495000000    -0.919000000
H    -1.750000000    -4.439000000    -0.073000000
H    -3.009000000    -4.962000000    -0.730000000
O     1.304000000     0.809000000    -3.374000000
H     1.415000000     1.499000000    -4.029000000
H     1.428000000     1.253000000    -2.535000000
O    -2.270000000     0.808000000    -6.206000000
H    -2.179000000     1.507000000    -5.558000000
H    -1.945000000     0.025000000    -5.761000000
O     3.268000000     2.883000000     1.447000000
H     2.386000000     2.927000000     1.815000000
H     3.605000000     3.776000000     1.523000000
O    -2.444000000    -2.673000000     3.297000000
H    -1.879000000    -2.917000000     2.564000000
H    -1.888000000    -2.768000000     4.071000000
O     5.497000000    -0.547000000     4.078000000
H     5.947000000    -0.381000000     3.250000000
H     4.580000000    -0.339000000     3.899000000
O    -0.781000000    -0.707000000    -4.427000000
H    -0.147000000    -0.050000000    -4.139000000
H    -1.522000000    -0.601000000    -3.830000000
O     0.852000000     6.017000000     1.177000000
H     0.956000000     6.962000000     1.288000000
H     1.746000000     5.675000000     1.182000000
O     3.529000000     2.829000000    -1.701000000
H     3.381000000     2.905000000    -0.759000000
H     3.642000000     3.732000000    -2.000000000
O     0.714000000    -6.389000000     0.196000000
H     0.425000000    -5.479000000     0.261000000
H     1.562000000    -6.340000000    -0.245000000
O    -3.772000000     0.585000000    -3.140000000
H    -3.064000000     1.120000000    -3.500000000
H    -4.002000000     1.015000000    -2.317000000
O    -2.025000000    -7.097000000     0.520000000
H    -1.115000000    -6.803000000     0.480000000
H    -2.263000000    -7.010000000     1.443000000
O    -4.570000000    -6.362000000     0.160000000
H    -4.926000000    -5.861000000     0.894000000
H    -3.744000000    -6.717000000     0.491000000
O     3.537000000    -3.930000000    -1.463000000
H     2.663000000    -3.959000000    -1.851000000
H     3.800000000    -3.012000000    -1.532000000
O     3.521000000    -4.705000000     1.665000000
H     2.847000000    -4.211000000     1.197000000
H     3.387000000    -4.482000000     2.586000000
O     3.485000000    -6.865000000    -1.050000000
H     3.828000000    -7.393000000    -1.771000000
H     3.635000000    -5.960000000    -1.324000000
O    -6.278000000    -2.320000000     1.578000000
H    -7.131000000    -2.498000000     1.181000000
H    -6.449000000    -2.314000000     2.519000000
O    -5.066000000    -1.424000000    -1.813000000
H    -4.690000000    -0.769000000    -2.401000000
H    -4.780000000    -1.156000000    -0.940000000
O     4.959000000     0.536000000    -2.673000000
H     4.719000000     1.438000000    -2.460000000
H     4.157000000     0.151000000    -3.025000000
O     0.774000000    -3.580000000    -2.082000000
H     0.173000000    -3.891000000    -2.759000000
H     0.265000000    -3.620000000    -1.272000000
O    -0.484000000     5.990000000    -1.117000000
H     0.302000000     6.088000000    -0.579000000
H    -0.738000000     6.887000000    -1.334000000
O    -4.639000000     4.690000000    -3.820000000
H    -4.881000000     4.923000000    -4.717000000
H    -3.699000000     4.865000000    -3.773000000
O    -2.801000000     0.121000000     3.584000000
H    -1.972000000     0.589000000     3.482000000
H    -2.558000000    -0.804000000     3.556000000
O     3.032000000    -2.391000000     3.317000000
H     2.692000000    -2.577000000     2.441000000
H     2.363000000    -1.839000000     3.721000000
O    -0.200000000     0.809000000     2.939000000
H    -0.031000000     1.688000000     2.600000000
H    -0.428000000     0.293000000     2.165000000
O    -7.089000000     1.103000000    -1.305000000
H    -7.741000000     1.556000000    -0.770000000
H    -6.271000000     1.567000000    -1.130000000
O     4.816000000    -7.125000000     1.598000000
H     5.137000000    -7.251000000     0.706000000
H     4.384000000    -6.271000000     1.579000000
O    -0.071000000    -7.240000000     3.223000000
H    -0.157000000    -6.287000000     3.254000000
H     0.743000000    -7.391000000     2.742000000
O    -4.400000000    -0.456000000     0.728000000
H    -5.010000000    -1.187000000     0.827000000
H    -3.950000000    -0.404000000     1.571000000
