144
-2814.74676
O    -1.300000000    -6.020000000    -0.127000000
H    -1.699000000    -6.447000000    -0.885000000
H    -0.488000000    -6.504000000     0.021000000
O    -1.604000000     1.390000000     2.515000000
H    -1.034000000     0.650000000     2.306000000
H    -2.487000000     1.021000000     2.510000000
O     6.223000000    -3.279000000     3.774000000
H     5.952000000    -2.516000000     4.285000000
H     5.410000000    -3.615000000     3.396000000
O    -1.322000000    -2.704000000    -3.163000000
H    -2.117000000    -3.195000000    -3.368000000
H    -0.807000000    -2.733000000    -3.969000000
O    -3.988000000     6.531000000    -0.827000000
H    -3.852000000     6.267000000    -1.737000000
H    -4.006000000     5.708000000    -0.339000000
O     5.597000000     1.374000000     1.530000000
H     6.178000000     1.295000000     0.773000000
H     4.936000000     0.695000000     1.397000000
O     1.524000000     0.014000000    -5.582000000
H     1.620000000    -0.712000000    -4.965000000
H     1.370000000     0.780000000    -5.029000000
O    -3.847000000     4.795000000    -3.179000000
H    -3.912000000     4.911000000    -4.127000000
H    -4.145000000     3.898000000    -3.026000000
O     0.710000000     4.498000000    -2.946000000
H     0.773000000     5.345000000    -3.387000000
H     0.765000000     4.707000000    -2.014000000
O    -4.087000000     0.238000000     2.934000000
H    -4.467000000    -0.355000000     2.286000000
H    -4.115000000    -0.254000000     3.754000000
O     2.136000000     3.691000000    -6.176000000
H     1.962000000     4.583000000    -5.875000000
H     1.803000000     3.133000000    -5.473000000
O     6.219000000    -1.723000000     1.200000000
H     6.744000000    -2.145000000     0.519000000
H     5.956000000    -2.439000000     1.777000000
O    -5.541000000     2.542000000    -2.546000000
H    -6.410000000     2.815000000    -2.254000000
H    -5.128000000     2.178000000    -1.763000000
O    -1.716000000    -2.390000000     3.170000000
H    -0.797000000    -2.226000000     2.958000000
H    -2.153000000    -2.440000000     2.320000000
O     5.310000000     4.037000000     2.229000000
H     5.295000000     3.089000000     2.101000000
H     5.725000000     4.379000000     1.437000000
O     0.578000000     2.522000000     3.955000000
H    -0.013000000     2.286000000     3.240000000
H     1.306000000     2.972000000     3.526000000
O     2.028000000    -3.369000000     4.999000000
H     1.692000000    -2.975000000     4.194000000
H     2.066000000    -2.644000000     5.623000000
O     5.253000000    -1.034000000     5.110000000
H     4.434000000    -0.550000000     5.008000000
H     5.250000000    -1.320000000     6.023000000
O     1.991000000     4.452000000     2.827000000
H     2.862000000     4.425000000     2.430000000
H     1.577000000     5.226000000     2.445000000
O     4.115000000    -0.639000000    -0.194000000
H     4.838000000    -0.845000000     0.399000000
H     3.327000000    -0.822000000     0.317000000
O    -2.604000000     3.312000000     1.010000000
H    -2.010000000     4.032000000     0.798000000
H    -2.030000000     2.610000000     1.317000000
O    -1.153000000    -6.609000000     5.168000000
H    -0.492000000    -7.301000000     5.150000000
H    -0.831000000    -5.954000000     4.548000000
O    -0.228000000    -5.067000000     3.209000000
H     0.375000000    -5.312000000     2.507000000
H    -0.044000000    -4.141000000     3.369000000
O     3.492000000    -2.825000000    -2.887000000
H     2.640000000    -2.510000000    -2.585000000
H     4.090000000    -2.626000000    -2.167000000
O    -1.424000000     4.418000000    -5.526000000
H    -2.299000000     4.639000000    -5.845000000
H    -1.260000000     3.538000000    -5.867000000
O    -3.943000000    -3.661000000    -4.008000000
H    -4.469000000    -3.934000000    -4.760000000
H    -4.150000000    -2.734000000    -3.895000000
O     2.135000000     5.133000000    -0.022000000
H     2.581000000     5.564000000    -0.751000000
H     2.230000000     5.742000000     0.710000000
O    -0.878000000     1.392000000    -6.538000000
H    -0.769000000     1.548000000    -7.476000000
H    -0.271000000     0.678000000    -6.342000000
O    -3.203000000     1.131000000    -5.297000000
H    -2.278000000     1.174000000    -5.538000000
H    -3.219000000     1.361000000    -4.368000000
O    -4.675000000    -3.814000000    -1.197000000
H    -4.852000000    -2.875000000    -1.266000000
H    -4.160000000    -4.018000000    -1.978000000
O     0.973000000    -0.902000000     7.087000000
H     1.592000000    -1.273000000     7.715000000
H     1.477000000    -0.236000000     6.619000000
O    -3.338000000    -4.806000000     3.928000000
H    -3.066000000    -3.909000000     3.734000000
H    -2.535000000    -5.244000000     4.211000000
O     5.077000000    -4.203000000    -0.757000000
H     4.830000000    -4.433000000     0.139000000
H     5.938000000    -3.794000000    -0.670000000
O    -4.913000000    -1.099000000    -1.328000000
H    -5.600000000    -0.633000000    -0.852000000
H    -4.097000000    -0.793000000    -0.930000000
O     3.738000000     0.779000000    -2.400000000
H     3.689000000     0.210000000    -1.632000000
H     4.494000000     0.456000000    -2.890000000
O     3.773000000     3.499000000    -1.593000000
H     3.131000000     3.720000000    -0.919000000
H     3.616000000     2.572000000    -1.778000000
O    -6.711000000     0.778000000    -4.611000000
H    -6.271000000     0.237000000    -5.266000000
H    -6.103000000     0.801000000    -3.872000000
O     1.102000000    -1.100000000    -2.986000000
H     0.900000000    -0.297000000    -2.506000000
H     0.350000000    -1.671000000    -2.825000000
O    -5.247000000    -1.954000000     1.721000000
H    -6.007000000    -2.072000000     1.151000000
H    -4.751000000    -2.767000000     1.630000000
O     3.940000000    -3.974000000     2.030000000
H     3.552000000    -3.103000000     2.109000000
H     3.373000000    -4.435000000     1.412000000
O     1.773000000    -5.850000000     5.837000000
H     1.683000000    -4.948000000     5.531000000
H     1.147000000    -5.923000000     6.557000000
O    -2.976000000    -3.462000000     1.035000000
H    -2.428000000    -4.243000000     0.963000000
H    -3.557000000    -3.506000000     0.275000000
O     1.475000000     2.154000000    -3.878000000
H     2.296000000     1.863000000    -3.482000000
H     1.125000000     2.796000000    -3.260000000
O    -0.815000000     4.899000000     0.069000000
H    -0.768000000     5.809000000     0.363000000
H    -0.038000000     4.486000000     0.445000000
O    -3.431000000    -1.234000000     5.265000000
H    -2.678000000    -1.439000000     4.710000000
H    -3.054000000    -0.786000000     6.022000000
O     2.915000000     0.264000000     4.374000000
H     2.826000000    -0.326000000     3.626000000
H     2.566000000     1.100000000     4.063000000
O    -4.306000000     1.779000000    -0.343000000
H    -3.752000000     2.524000000    -0.110000000
H    -4.704000000     1.507000000     0.484000000
O     0.440000000    -4.302000000    -1.435000000
H    -0.059000000    -3.700000000    -1.987000000
H    -0.143000000    -4.494000000    -0.701000000
