144
-2820.00620
O    -0.538000000     0.448000000    -5.576000000
H    -0.371000000    -0.086000000    -6.353000000
H    -1.318000000     0.058000000    -5.181000000
O     4.218000000     2.765000000     3.818000000
H     4.179000000     2.528000000     4.745000000
H     3.374000000     3.181000000     3.642000000
O    -4.716000000     1.806000000     0.506000000
H    -4.882000000     0.889000000     0.724000000
H    -3.969000000     2.050000000     1.053000000
O    -5.554000000     4.928000000     1.853000000
H    -4.969000000     4.412000000     1.299000000
H    -4.970000000     5.506000000     2.345000000
O     3.081000000     1.750000000    -0.806000000
H     3.134000000     0.829000000    -1.061000000
H     3.283000000     1.751000000     0.130000000
O     2.257000000     1.288000000    -5.653000000
H     2.364000000     2.237000000    -5.581000000
H     1.396000000     1.115000000    -5.272000000
O    -2.897000000    -2.900000000     0.662000000
H    -3.456000000    -2.696000000    -0.087000000
H    -3.122000000    -3.802000000     0.891000000
O    -2.139000000     5.232000000    -4.488000000
H    -2.967000000     4.877000000    -4.165000000
H    -1.738000000     4.507000000    -4.968000000
O     1.421000000     3.488000000     3.636000000
H     1.389000000     3.629000000     2.690000000
H     1.289000000     2.546000000     3.742000000
O    -0.983000000    -0.098000000     4.700000000
H    -0.609000000    -0.834000000     5.186000000
H    -1.035000000    -0.410000000     3.797000000
O    -4.612000000     4.190000000    -3.746000000
H    -5.490000000     4.571000000    -3.772000000
H    -4.212000000     4.563000000    -2.960000000
O    -0.074000000     6.148000000    -1.955000000
H    -0.896000000     5.679000000    -2.101000000
H    -0.332000000     7.067000000    -1.885000000
O     1.472000000     0.807000000     4.629000000
H     1.729000000     0.052000000     4.099000000
H     0.516000000     0.762000000     4.660000000
O     0.752000000    -4.863000000    -1.665000000
H     0.283000000    -4.738000000    -2.491000000
H     0.192000000    -5.451000000    -1.159000000
O    -3.292000000     1.452000000     3.124000000
H    -2.765000000     2.171000000     3.473000000
H    -2.658000000     0.764000000     2.925000000
O     2.849000000    -1.898000000     5.357000000
H     2.733000000    -1.539000000     4.477000000
H     2.069000000    -1.616000000     5.835000000
O     0.882000000     5.167000000     0.560000000
H     0.542000000     5.366000000    -0.312000000
H     1.754000000     5.562000000     0.574000000
O    -6.224000000    -1.146000000    -3.353000000
H    -5.800000000    -0.441000000    -2.862000000
H    -6.518000000    -0.730000000    -4.163000000
O     5.225000000     0.833000000     1.735000000
H     5.506000000     1.554000000     2.299000000
H     4.876000000     0.179000000     2.340000000
O     2.724000000    -4.792000000     5.791000000
H     3.023000000    -4.838000000     4.882000000
H     3.040000000    -3.945000000     6.104000000
O     1.414000000     4.599000000     6.037000000
H     0.938000000     3.867000000     6.429000000
H     1.461000000     4.382000000     5.106000000
O     5.216000000    -0.682000000     6.134000000
H     4.756000000     0.086000000     6.472000000
H     4.529000000    -1.221000000     5.744000000
O    -1.908000000    -2.077000000    -6.490000000
H    -2.742000000    -2.036000000    -6.021000000
H    -2.145000000    -1.946000000    -7.409000000
O    -0.180000000    -4.887000000    -4.147000000
H     0.114000000    -4.252000000    -4.800000000
H    -0.757000000    -5.478000000    -4.630000000
O    -3.385000000    -5.005000000    -3.197000000
H    -3.784000000    -5.612000000    -3.821000000
H    -2.710000000    -4.551000000    -3.702000000
O    -4.375000000    -2.753000000    -1.648000000
H    -4.993000000    -2.316000000    -2.234000000
H    -3.949000000    -3.412000000    -2.197000000
O     3.190000000    -4.834000000     3.171000000
H     2.961000000    -5.709000000     2.857000000
H     2.612000000    -4.247000000     2.683000000
O     5.752000000    -3.751000000     0.479000000
H     5.663000000    -2.914000000     0.024000000
H     4.863000000    -3.968000000     0.758000000
O     2.415000000     3.476000000    -2.828000000
H     1.584000000     3.878000000    -2.574000000
H     2.670000000     2.952000000    -2.068000000
O    -0.057000000    -3.908000000     3.620000000
H    -0.104000000    -4.806000000     3.292000000
H     0.634000000    -3.498000000     3.099000000
O     2.265000000    -7.680000000     1.921000000
H     2.351000000    -7.810000000     0.976000000
H     1.477000000    -7.147000000     2.019000000
O     2.790000000    -4.211000000     0.017000000
H     2.474000000    -3.766000000     0.803000000
H     2.002000000    -4.369000000    -0.502000000
O     5.092000000    -2.583000000     3.606000000
H     5.263000000    -3.487000000     3.342000000
H     4.323000000    -2.326000000     3.096000000
O     3.586000000    -4.911000000    -3.478000000
H     3.837000000    -5.832000000    -3.409000000
H     2.916000000    -4.793000000    -2.804000000
O    -6.808000000     2.632000000    -1.003000000
H    -6.176000000     2.317000000    -0.358000000
H    -6.760000000     3.586000000    -0.940000000
O    -4.220000000    -2.469000000    -5.047000000
H    -4.803000000    -1.861000000    -5.502000000
H    -4.710000000    -2.730000000    -4.267000000
O    -1.735000000    -6.213000000    -0.831000000
H    -2.333000000    -6.357000000    -0.098000000
H    -2.283000000    -5.826000000    -1.515000000
O    -1.429000000     3.017000000    -6.021000000
H    -0.978000000     2.194000000    -5.833000000
H    -1.001000000     3.350000000    -6.809000000
O     3.318000000    -0.643000000    -1.882000000
H     3.527000000    -0.756000000    -2.809000000
H     2.538000000    -1.180000000    -1.746000000
O    -0.439000000    -6.573000000     2.441000000
H    -1.073000000    -6.438000000     1.736000000
H    -0.913000000    -7.089000000     3.093000000
O    -5.622000000     1.566000000    -3.064000000
H    -4.952000000     2.129000000    -3.451000000
H    -5.894000000     2.028000000    -2.271000000
O    -1.812000000    -1.060000000     2.350000000
H    -2.081000000    -1.965000000     2.504000000
H    -1.517000000    -1.049000000     1.439000000
O     2.288000000     1.366000000     7.006000000
H     3.185000000     1.697000000     6.957000000
H     2.146000000     0.933000000     6.164000000
O     0.071000000    -2.261000000     5.968000000
H    -0.143000000    -2.674000000     6.804000000
H    -0.065000000    -2.951000000     5.318000000
O    -1.952000000     3.606000000     4.167000000
H    -1.029000000     3.534000000     4.409000000
H    -2.387000000     3.905000000     4.965000000
O     5.565000000    -1.073000000    -0.438000000
H     5.516000000    -0.692000000     0.438000000
H     4.874000000    -0.630000000    -0.931000000
O    -5.174000000    -1.195000000     1.583000000
H    -4.298000000    -1.520000000     1.377000000
H    -5.752000000    -1.940000000     1.416000000
O    -3.167000000     5.658000000    -1.498000000
H    -2.879000000     5.941000000    -0.629000000
H    -3.849000000     6.284000000    -1.739000000
