144
-2814.82287
O    -0.772000000     1.247000000    -7.029000000
H     0.169000000     1.239000000    -7.205000000
H    -1.133000000     1.842000000    -7.686000000
O    -3.017000000     2.994000000     2.577000000
H    -3.324000000     2.267000000     2.035000000
H    -2.198000000     2.680000000     2.958000000
O    -2.544000000     5.139000000     0.936000000
H    -2.702000000     4.571000000     1.690000000
H    -3.362000000     5.624000000     0.825000000
O     3.843000000     3.075000000     2.639000000
H     4.080000000     2.364000000     2.043000000
H     2.899000000     3.181000000     2.521000000
O     3.730000000     1.257000000    -1.830000000
H     3.171000000     1.883000000    -2.291000000
H     3.349000000     0.402000000    -2.031000000
O    -1.807000000    -3.576000000     7.012000000
H    -1.152000000    -3.469000000     7.702000000
H    -1.310000000    -3.503000000     6.197000000
O     2.158000000     4.371000000    -2.353000000
H     1.630000000     5.112000000    -2.651000000
H     2.091000000     4.397000000    -1.399000000
O     2.038000000    -0.205000000    -4.429000000
H     2.251000000    -0.341000000    -5.352000000
H     2.190000000     0.729000000    -4.284000000
O    -1.160000000     4.799000000    -3.145000000
H    -1.878000000     5.174000000    -3.656000000
H    -0.874000000     4.041000000    -3.655000000
O    -1.152000000    -1.082000000     4.869000000
H    -1.014000000    -2.028000000     4.822000000
H    -1.117000000    -0.880000000     5.804000000
O    -3.985000000     1.773000000    -3.415000000
H    -4.184000000     0.867000000    -3.179000000
H    -3.704000000     2.178000000    -2.595000000
O    -4.042000000     2.014000000    -6.260000000
H    -3.621000000     1.898000000    -5.408000000
H    -4.538000000     2.828000000    -6.174000000
O     5.349000000    -2.143000000     5.318000000
H     4.903000000    -2.840000000     4.837000000
H     4.642000000    -1.595000000     5.658000000
O     1.368000000     6.566000000     1.425000000
H     0.827000000     5.929000000     0.957000000
H     0.740000000     7.183000000     1.801000000
O     2.760000000    -7.501000000     1.088000000
H     2.306000000    -6.680000000     0.899000000
H     2.380000000    -8.131000000     0.477000000
O     1.880000000     0.632000000     4.090000000
H     1.882000000    -0.247000000     3.711000000
H     2.761000000     0.739000000     4.450000000
O    -1.022000000    -6.286000000     3.424000000
H    -1.483000000    -6.075000000     4.235000000
H    -1.550000000    -6.975000000     3.020000000
O     4.887000000     4.440000000    -0.385000000
H     4.454000000     3.672000000    -0.758000000
H     5.798000000     4.170000000    -0.272000000
O     4.246000000     1.535000000     5.304000000
H     3.999000000     2.346000000     4.860000000
H     5.202000000     1.518000000     5.259000000
O    -0.883000000     1.596000000     4.197000000
H    -0.776000000     0.645000000     4.168000000
H    -0.045000000     1.941000000     3.889000000
O     3.267000000    -3.932000000     4.707000000
H     3.125000000    -4.826000000     4.396000000
H     2.549000000    -3.428000000     4.324000000
O     4.392000000    -1.638000000     2.126000000
H     4.417000000    -0.810000000     1.647000000
H     3.460000000    -1.827000000     2.231000000
O     0.976000000    -2.672000000     7.404000000
H     1.370000000    -2.210000000     6.664000000
H     1.679000000    -2.728000000     8.052000000
O     2.745000000     2.665000000    -4.396000000
H     2.260000000     3.215000000    -3.780000000
H     2.713000000     3.146000000    -5.223000000
O     2.634000000    -5.615000000     6.639000000
H     2.700000000    -4.816000000     6.117000000
H     3.489000000    -5.698000000     7.060000000
O    -0.025000000     6.020000000    -5.596000000
H    -0.106000000     5.104000000    -5.328000000
H    -0.111000000     6.516000000    -4.782000000
O    -4.347000000    -1.905000000    -1.823000000
H    -4.832000000    -2.496000000    -1.247000000
H    -5.014000000    -1.529000000    -2.396000000
O    -1.295000000    -2.747000000    -5.094000000
H    -2.052000000    -3.319000000    -4.966000000
H    -1.126000000    -2.782000000    -6.036000000
O     1.223000000     0.952000000     6.672000000
H     1.519000000     0.834000000     5.770000000
H     0.416000000     0.441000000     6.728000000
O    -3.795000000    -4.228000000     1.986000000
H    -4.249000000    -4.480000000     1.182000000
H    -2.871000000    -4.189000000     1.738000000
O    -3.901000000    -1.687000000     2.856000000
H    -4.245000000    -1.547000000     3.738000000
H    -3.628000000    -2.604000000     2.848000000
O     2.212000000    -4.767000000     0.780000000
H     1.601000000    -4.498000000     1.467000000
H     1.860000000    -4.374000000    -0.019000000
O    -0.182000000     5.227000000    -0.266000000
H    -1.050000000     5.299000000     0.130000000
H    -0.349000000     5.211000000    -1.209000000
O     1.020000000     4.000000000     2.861000000
H     0.233000000     3.757000000     2.374000000
H     0.800000000     4.836000000     3.272000000
O     1.762000000    -6.321000000     3.637000000
H     1.850000000    -7.101000000     3.090000000
H     0.827000000    -6.272000000     3.836000000
O     0.918000000    -2.400000000    -3.478000000
H     1.379000000    -1.595000000    -3.715000000
H     0.033000000    -2.278000000    -3.822000000
O    -1.239000000    -4.937000000     0.923000000
H    -0.727000000    -4.189000000     1.232000000
H    -1.042000000    -5.636000000     1.547000000
O     4.958000000    -4.202000000     1.571000000
H     4.789000000    -3.302000000     1.849000000
H     4.092000000    -4.554000000     1.364000000
O     0.874000000    -3.687000000    -1.245000000
H     0.999000000    -3.217000000    -2.069000000
H    -0.039000000    -3.974000000    -1.269000000
O    -6.375000000     1.137000000    -1.274000000
H    -6.898000000     0.336000000    -1.229000000
H    -5.571000000     0.924000000    -0.800000000
O    -3.596000000    -4.085000000    -3.925000000
H    -3.738000000    -3.581000000    -3.124000000
H    -4.365000000    -4.650000000    -3.992000000
O    -0.026000000     3.169000000    -5.307000000
H    -0.592000000     2.411000000    -5.456000000
H     0.431000000     3.294000000    -6.139000000
O     3.115000000    -1.767000000    -1.088000000
H     2.525000000    -2.301000000    -1.621000000
H     2.685000000    -1.716000000    -0.234000000
O    -0.278000000    -3.616000000     4.807000000
H    -0.121000000    -3.312000000     3.913000000
H     0.453000000    -4.207000000     4.991000000
O    -3.376000000     0.443000000     1.153000000
H    -3.453000000    -0.448000000     1.494000000
H    -2.518000000     0.464000000     0.730000000
O    -3.843000000     4.166000000    -1.432000000
H    -3.099000000     4.313000000    -0.848000000
H    -4.258000000     5.025000000    -1.513000000
O    -3.775000000     4.905000000    -4.432000000
H    -3.750000000     4.371000000    -3.638000000
H    -4.595000000     4.658000000    -4.860000000
O     4.540000000     0.686000000     0.865000000
H     3.991000000     0.893000000     0.108000000
H     5.358000000     1.156000000     0.704000000
