144
-2818.24365
O    -0.271000000    -2.686000000    -6.913000000
H    -0.110000000    -1.742000000    -6.905000000
H    -0.553000000    -2.873000000    -7.808000000
O    -3.357000000     1.056000000    -2.727000000
H    -2.708000000     1.544000000    -3.233000000
H    -3.796000000     1.720000000    -2.195000000
O    -5.251000000     5.091000000     3.749000000
H    -5.080000000     4.149000000     3.739000000
H    -6.170000000     5.164000000     4.007000000
O     1.372000000    -3.830000000    -5.149000000
H     2.068000000    -4.301000000    -5.607000000
H     0.808000000    -3.498000000    -5.847000000
O    -1.889000000    -4.894000000    -1.483000000
H    -2.130000000    -5.331000000    -2.300000000
H    -1.067000000    -4.446000000    -1.685000000
O     1.334000000     1.707000000     4.788000000
H     0.777000000     0.938000000     4.664000000
H     1.622000000     1.940000000     3.906000000
O     5.973000000    -1.036000000    -1.620000000
H     6.159000000    -1.219000000    -2.542000000
H     6.252000000    -0.129000000    -1.495000000
O     0.738000000     1.916000000     7.755000000
H     0.022000000     1.358000000     8.059000000
H     0.844000000     1.687000000     6.832000000
O     2.854000000     0.842000000     0.075000000
H     3.123000000     0.960000000    -0.836000000
H     2.307000000     0.057000000     0.063000000
O     3.467000000    -5.434000000     0.044000000
H     4.305000000    -5.227000000     0.458000000
H     3.005000000    -5.967000000     0.692000000
O     0.573000000    -0.132000000    -7.021000000
H     1.400000000    -0.047000000    -6.546000000
H     0.457000000     0.714000000    -7.454000000
O    -1.048000000     4.492000000    -1.349000000
H    -1.758000000     5.080000000    -1.605000000
H    -0.977000000     3.871000000    -2.074000000
O     1.235000000     5.120000000     5.007000000
H     0.384000000     4.688000000     4.929000000
H     1.867000000     4.401000000     5.035000000
O     0.896000000    -4.167000000    -2.433000000
H     1.616000000    -3.721000000    -1.988000000
H     1.078000000    -4.046000000    -3.365000000
O    -2.660000000     3.938000000     2.122000000
H    -3.484000000     3.451000000     2.104000000
H    -2.025000000     3.323000000     2.489000000
O    -0.307000000    -1.086000000     6.777000000
H    -0.620000000    -1.914000000     6.414000000
H     0.461000000    -0.868000000     6.249000000
O    -1.943000000    -4.150000000     3.076000000
H    -2.707000000    -4.665000000     2.813000000
H    -1.209000000    -4.560000000     2.617000000
O     1.436000000    -6.723000000    -1.276000000
H     2.321000000    -6.816000000    -0.921000000
H     1.505000000    -6.006000000    -1.906000000
O     2.893000000    -2.790000000     2.467000000
H     3.286000000    -2.710000000     1.598000000
H     3.234000000    -2.040000000     2.954000000
O     3.398000000     1.650000000    -4.193000000
H     3.500000000     0.823000000    -4.665000000
H     4.025000000     1.592000000    -3.472000000
O    -2.591000000     6.392000000     3.972000000
H    -3.470000000     6.027000000     3.868000000
H    -2.016000000     5.628000000     3.997000000
O    -1.273000000     2.368000000    -4.087000000
H    -1.711000000     3.135000000    -4.456000000
H    -0.779000000     1.999000000    -4.819000000
O    -2.122000000     0.783000000     5.895000000
H    -1.603000000     0.211000000     6.461000000
H    -1.709000000     0.707000000     5.035000000
O     1.417000000     4.745000000     0.074000000
H     0.865000000     4.447000000    -0.649000000
H     0.855000000     5.337000000     0.575000000
O     2.355000000     4.249000000    -3.378000000
H     2.874000000     3.958000000    -2.628000000
H     2.252000000     3.465000000    -3.917000000
O     1.157000000    -1.501000000     4.558000000
H     1.278000000    -2.443000000     4.438000000
H     0.445000000    -1.273000000     3.961000000
O     3.718000000    -1.122000000     5.780000000
H     2.822000000    -1.078000000     5.446000000
H     3.666000000    -1.718000000     6.528000000
O    -3.957000000    -1.268000000    -0.164000000
H    -3.248000000    -1.513000000     0.431000000
H    -3.626000000    -0.498000000    -0.626000000
O    -1.356000000     3.742000000     5.018000000
H    -2.169000000     3.575000000     5.495000000
H    -1.249000000     2.977000000     4.453000000
O    -2.203000000    -4.117000000    -5.041000000
H    -2.792000000    -3.388000000    -5.235000000
H    -1.472000000    -4.003000000    -5.649000000
O    -5.451000000     0.618000000     5.242000000
H    -6.341000000     0.932000000     5.401000000
H    -5.084000000     1.246000000     4.620000000
O     6.362000000    -2.068000000    -4.213000000
H     6.550000000    -1.453000000    -4.922000000
H     5.434000000    -2.278000000    -4.317000000
O     4.480000000    -0.426000000     3.168000000
H     4.464000000    -0.621000000     4.105000000
H     4.342000000     0.520000000     3.118000000
O    -0.560000000    -5.696000000     1.307000000
H    -0.320000000    -5.378000000     0.437000000
H    -0.193000000    -6.580000000     1.348000000
O     3.461000000    -2.570000000    -4.035000000
H     2.716000000    -2.751000000    -4.609000000
H     3.211000000    -2.947000000    -3.192000000
O    -4.239000000    -1.546000000    -3.769000000
H    -4.045000000    -1.357000000    -4.687000000
H    -3.796000000    -0.850000000    -3.283000000
O     3.138000000    -0.367000000    -5.873000000
H     3.280000000    -1.100000000    -5.275000000
H     3.217000000    -0.751000000    -6.746000000
O    -5.261000000    -1.847000000     4.171000000
H    -5.605000000    -1.063000000     4.600000000
H    -4.438000000    -1.562000000     3.774000000
O     4.779000000    -1.646000000     0.550000000
H     5.326000000    -1.341000000    -0.174000000
H     4.558000000    -0.851000000     1.034000000
O     2.125000000     2.450000000     2.250000000
H     2.183000000     1.714000000     1.640000000
H     1.786000000     3.173000000     1.722000000
O    -0.651000000     6.238000000     1.477000000
H    -1.385000000     6.803000000     1.236000000
H    -0.947000000     5.355000000     1.256000000
O    -4.775000000     3.846000000     0.026000000
H    -4.548000000     4.070000000    -0.877000000
H    -3.951000000     3.925000000     0.506000000
O    -1.116000000    -3.553000000     5.659000000
H    -1.564000000    -3.997000000     4.940000000
H    -1.822000000    -3.194000000     6.197000000
O    -4.125000000     2.500000000     3.784000000
H    -3.771000000     2.987000000     4.528000000
H    -3.376000000     2.016000000     3.436000000
O    -2.941000000    -1.537000000     2.893000000
H    -2.500000000    -2.385000000     2.847000000
H    -2.264000000    -0.931000000     3.194000000
O     1.940000000    -5.662000000     3.247000000
H     1.775000000    -5.688000000     4.190000000
H     2.108000000    -4.738000000     3.059000000
O    -3.329000000    -1.790000000     6.522000000
H    -3.783000000    -0.989000000     6.783000000
H    -3.612000000    -1.941000000     5.620000000
O     3.414000000    -3.131000000    -1.170000000
H     3.989000000    -2.572000000    -0.647000000
H     3.592000000    -4.018000000    -0.856000000
