144
-2802.26969
O     3.874000000    -3.261000000     0.673000000
H     3.598000000    -3.063000000     1.569000000
H     4.685000000    -2.767000000     0.557000000
O    -4.203000000     3.391000000    -1.415000000
H    -3.549000000     3.778000000    -1.998000000
H    -3.732000000     3.235000000    -0.597000000
O    -5.105000000     4.240000000     2.213000000
H    -5.840000000     4.166000000     1.605000000
H    -4.982000000     3.353000000     2.550000000
O    -3.056000000     2.482000000     0.840000000
H    -3.117000000     1.541000000     0.678000000
H    -2.224000000     2.592000000     1.301000000
O     1.053000000    -3.226000000    -4.288000000
H     1.181000000    -3.131000000    -3.344000000
H     0.724000000    -2.374000000    -4.572000000
O     0.637000000     0.832000000     4.891000000
H     0.237000000     1.060000000     5.731000000
H     1.495000000     0.476000000     5.124000000
O     5.732000000     3.639000000    -2.774000000
H     6.096000000     2.832000000    -3.138000000
H     6.097000000     4.334000000    -3.322000000
O    -1.076000000     2.492000000     2.612000000
H    -0.632000000     1.645000000     2.656000000
H    -0.529000000     3.076000000     3.138000000
O     3.436000000     4.674000000     3.085000000
H     2.920000000     5.201000000     3.695000000
H     2.977000000     4.758000000     2.249000000
O     4.444000000     0.169000000     5.868000000
H     4.220000000    -0.343000000     5.091000000
H     3.603000000     0.342000000     6.291000000
O     0.210000000    -4.341000000     2.009000000
H     0.604000000    -5.203000000     1.873000000
H    -0.480000000    -4.286000000     1.348000000
O     0.395000000    -0.700000000    -4.593000000
H     0.922000000    -0.199000000    -5.216000000
H    -0.302000000    -0.099000000    -4.332000000
O     2.040000000     1.057000000    -5.948000000
H     1.894000000     1.741000000    -6.601000000
H     2.319000000     0.296000000    -6.457000000
O     3.160000000    -5.353000000    -0.942000000
H     3.577000000    -4.631000000    -0.471000000
H     3.375000000    -6.131000000    -0.428000000
O    -0.139000000    -4.844000000    -1.474000000
H    -1.034000000    -4.545000000    -1.310000000
H     0.393000000    -4.050000000    -1.416000000
O    -2.142000000    -4.125000000     0.466000000
H    -2.437000000    -3.253000000     0.726000000
H    -2.948000000    -4.633000000     0.373000000
O     5.406000000     2.972000000    -5.801000000
H     5.558000000     2.197000000    -5.261000000
H     5.235000000     2.624000000    -6.676000000
O     4.421000000     0.717000000    -3.701000000
H     4.465000000     0.847000000    -2.754000000
H     4.160000000    -0.198000000    -3.806000000
O    -3.808000000    -3.211000000     5.926000000
H    -3.512000000    -3.276000000     5.018000000
H    -3.265000000    -2.520000000     6.306000000
O    -3.111000000    -0.151000000     5.505000000
H    -3.818000000     0.472000000     5.337000000
H    -2.332000000     0.265000000     5.134000000
O    -2.275000000    -2.703000000     3.756000000
H    -2.495000000    -2.407000000     2.873000000
H    -1.366000000    -2.429000000     3.881000000
O    -1.898000000     4.001000000    -3.133000000
H    -2.084000000     4.879000000    -2.801000000
H    -0.986000000     3.840000000    -2.888000000
O    -6.499000000    -2.915000000     0.557000000
H    -6.770000000    -3.609000000     1.158000000
H    -5.543000000    -2.932000000     0.587000000
O     2.206000000    -2.934000000     2.928000000
H     1.465000000    -3.272000000     2.424000000
H     2.381000000    -3.614000000     3.579000000
O    -1.867000000     0.902000000    -4.819000000
H    -2.311000000     0.944000000    -3.972000000
H    -1.660000000     1.813000000    -5.026000000
O    -4.887000000    -0.920000000     3.458000000
H    -4.375000000    -1.156000000     2.685000000
H    -4.241000000    -0.850000000     4.161000000
O    -7.079000000     1.144000000    -3.456000000
H    -6.603000000     0.390000000    -3.804000000
H    -6.712000000     1.276000000    -2.582000000
O    -5.453000000     0.833000000    -1.208000000
H    -5.164000000     1.737000000    -1.328000000
H    -4.785000000     0.440000000    -0.646000000
O     5.866000000    -1.692000000     0.180000000
H     5.698000000    -1.132000000    -0.578000000
H     6.238000000    -1.102000000     0.836000000
O     3.553000000    -1.802000000    -4.335000000
H     2.847000000    -2.445000000    -4.264000000
H     4.303000000    -2.304000000    -4.653000000
O     5.959000000     0.637000000    -0.941000000
H     6.227000000     0.820000000    -0.040000000
H     6.777000000     0.453000000    -1.402000000
O     0.852000000     4.958000000    -1.919000000
H     0.922000000     5.157000000    -2.853000000
H     1.059000000     4.026000000    -1.857000000
O    -5.705000000     1.469000000     2.401000000
H    -5.042000000     1.371000000     1.718000000
H    -5.771000000     0.601000000     2.798000000
O    -8.330000000     1.423000000     2.781000000
H    -8.333000000     1.608000000     3.720000000
H    -7.404000000     1.426000000     2.539000000
O     0.159000000    -2.072000000     4.707000000
H     0.818000000    -2.623000000     5.129000000
H     0.658000000    -1.352000000     4.322000000
O    -7.690000000    -0.380000000    -0.170000000
H    -7.404000000    -1.292000000    -0.116000000
H    -6.932000000     0.088000000    -0.521000000
O     5.625000000    -3.296000000     2.997000000
H     5.060000000    -2.715000000     3.506000000
H     6.402000000    -2.771000000     2.809000000
O     1.434000000    -2.559000000    -1.621000000
H     2.145000000    -2.649000000    -0.987000000
H     1.084000000    -1.682000000    -1.465000000
O     1.650000000     5.313000000    -4.569000000
H     2.254000000     5.712000000    -5.195000000
H     2.022000000     4.449000000    -4.393000000
O     3.627000000    -0.771000000     3.538000000
H     3.232000000    -0.096000000     2.986000000
H     3.026000000    -1.513000000     3.475000000
O    -1.578000000    -5.451000000     4.543000000
H    -1.625000000    -5.145000000     5.449000000
H    -1.789000000    -4.679000000     4.018000000
O     4.679000000     4.034000000    -0.087000000
H     5.018000000     3.839000000    -0.961000000
H     4.937000000     3.280000000     0.443000000
O     6.157000000     1.873000000     1.750000000
H     6.717000000     2.641000000     1.633000000
H     6.267000000     1.633000000     2.670000000
O     2.990000000     6.090000000    -0.154000000
H     3.777000000     5.640000000     0.153000000
H     2.537000000     5.439000000    -0.690000000
O    -7.397000000    -2.723000000     3.507000000
H    -6.644000000    -2.216000000     3.205000000
H    -8.095000000    -2.507000000     2.888000000
O    -4.573000000    -5.099000000     0.250000000
H    -4.676000000    -5.948000000    -0.179000000
H    -5.197000000    -5.121000000     0.976000000
O     1.992000000     2.783000000    -3.446000000
H     1.756000000     2.208000000    -4.174000000
H     2.833000000     2.447000000    -3.138000000
O    -6.641000000    -3.034000000    -2.451000000
H    -6.575000000    -2.907000000    -1.504000000
H    -5.862000000    -3.542000000    -2.679000000
