144
-2793.81549
O     7.311000000    -0.820000000     2.169000000
H     7.862000000    -1.355000000     1.598000000
H     6.442000000    -0.861000000     1.770000000
O    -3.877000000     2.115000000     1.644000000
H    -4.202000000     2.995000000     1.455000000
H    -2.939000000     2.161000000     1.455000000
O     6.796000000     3.131000000     1.365000000
H     7.538000000     2.530000000     1.301000000
H     6.025000000     2.573000000     1.263000000
O    -1.008000000     2.490000000     4.818000000
H    -1.463000000     2.698000000     5.634000000
H    -1.688000000     2.125000000     4.252000000
O    -1.985000000     4.194000000    -5.692000000
H    -1.845000000     4.564000000    -6.563000000
H    -1.105000000     4.100000000    -5.327000000
O    -3.587000000     1.989000000    -5.987000000
H    -2.942000000     2.650000000    -5.734000000
H    -3.413000000     1.250000000    -5.405000000
O     5.260000000    -1.526000000    -4.588000000
H     6.116000000    -1.159000000    -4.364000000
H     4.637000000    -1.006000000    -4.081000000
O    -5.137000000    -3.892000000     4.797000000
H    -5.129000000    -3.791000000     5.749000000
H    -5.088000000    -2.997000000     4.461000000
O    -1.173000000     2.389000000     1.700000000
H    -0.642000000     2.777000000     2.395000000
H    -0.605000000     1.727000000     1.305000000
O     2.571000000    -3.518000000    -2.266000000
H     1.672000000    -3.193000000    -2.314000000
H     3.055000000    -2.821000000    -1.824000000
O     0.995000000     5.838000000    -1.918000000
H     1.384000000     6.418000000    -1.264000000
H     0.990000000     6.354000000    -2.724000000
O     0.750000000     0.526000000     4.316000000
H     0.137000000     1.077000000     4.803000000
H     0.274000000    -0.291000000     4.170000000
O     3.179000000     1.999000000     3.238000000
H     2.854000000     2.876000000     3.441000000
H     2.435000000     1.422000000     3.413000000
O     3.474000000    -1.005000000    -0.939000000
H     2.660000000    -0.646000000    -0.587000000
H     3.633000000    -0.500000000    -1.737000000
O    -0.512000000    -1.414000000    -5.067000000
H    -0.406000000    -0.466000000    -5.156000000
H     0.259000000    -1.782000000    -5.498000000
O     4.694000000    -1.153000000     1.658000000
H     4.758000000    -1.276000000     0.711000000
H     4.162000000    -1.889000000     1.960000000
O    -0.227000000    -6.043000000     1.541000000
H    -0.774000000    -5.707000000     2.251000000
H     0.123000000    -5.260000000     1.117000000
O     4.141000000     3.936000000    -2.495000000
H     3.705000000     4.146000000    -1.670000000
H     4.428000000     4.783000000    -2.837000000
O     0.274000000    -5.025000000     7.491000000
H     0.199000000    -4.290000000     6.882000000
H     1.208000000    -5.069000000     7.699000000
O    -0.222000000     4.702000000     0.113000000
H    -0.071000000     3.758000000     0.057000000
H     0.282000000     5.069000000    -0.613000000
O    -2.061000000    -4.503000000     3.203000000
H    -2.977000000    -4.711000000     3.386000000
H    -2.082000000    -3.608000000     2.863000000
O    -3.491000000    -1.545000000     4.934000000
H    -2.855000000    -1.770000000     4.255000000
H    -3.085000000    -1.841000000     5.749000000
O    -0.434000000     1.248000000    -5.692000000
H    -0.931000000     1.610000000    -6.425000000
H     0.057000000     1.992000000    -5.345000000
O    -0.094000000    -3.337000000     5.596000000
H    -0.705000000    -3.495000000     4.876000000
H     0.212000000    -2.440000000     5.457000000
O     4.892000000     1.202000000     5.104000000
H     4.576000000     1.640000000     4.314000000
H     4.806000000     1.860000000     5.794000000
O     4.295000000     0.535000000    -3.025000000
H     4.948000000     1.167000000    -2.723000000
H     3.838000000     0.984000000    -3.736000000
O     0.471000000    -3.592000000     0.287000000
H     0.114000000    -2.705000000     0.249000000
H     1.240000000    -3.517000000     0.852000000
O     1.109000000     4.121000000     2.684000000
H     0.452000000     4.483000000     2.090000000
H     1.041000000     4.659000000     3.473000000
O     4.834000000     1.611000000     1.222000000
H     5.009000000     0.701000000     1.461000000
H     4.061000000     1.849000000     1.734000000
O    -5.836000000     2.084000000    -1.809000000
H    -5.238000000     1.691000000    -1.174000000
H    -6.644000000     1.578000000    -1.723000000
O     3.020000000    -3.271000000     2.190000000
H     3.088000000    -4.225000000     2.220000000
H     2.566000000    -3.038000000     3.000000000
O    -2.415000000     6.243000000    -3.649000000
H    -2.608000000     6.817000000    -4.390000000
H    -2.095000000     5.435000000    -4.050000000
O    -3.231000000    -0.302000000    -4.568000000
H    -3.682000000    -1.131000000    -4.408000000
H    -2.319000000    -0.478000000    -4.339000000
O    -0.288000000    -3.150000000    -3.016000000
H    -0.582000000    -2.557000000    -3.707000000
H    -1.096000000    -3.464000000    -2.610000000
O     3.126000000     5.163000000    -5.219000000
H     3.995000000     5.199000000    -4.820000000
H     3.195000000     5.718000000    -5.996000000
O     6.566000000     2.359000000    -2.229000000
H     7.273000000     2.981000000    -2.403000000
H     5.765000000     2.850000000    -2.414000000
O     3.064000000    -1.294000000     4.632000000
H     3.803000000    -0.913000000     4.158000000
H     2.401000000    -0.603000000     4.638000000
O     3.509000000     4.173000000     0.355000000
H     4.384000000     4.515000000     0.537000000
H     3.485000000     3.326000000     0.800000000
O    -0.942000000    -6.489000000     4.871000000
H    -0.363000000    -5.978000000     5.437000000
H    -1.341000000    -5.842000000     4.290000000
O    -0.542000000    -0.065000000     7.731000000
H    -1.118000000    -0.735000000     7.363000000
H    -0.915000000     0.763000000     7.431000000
O     4.035000000     2.561000000    -5.074000000
H     3.738000000     3.142000000    -4.374000000
H     3.481000000     2.784000000    -5.822000000
O    -3.917000000    -3.489000000     0.619000000
H    -4.799000000    -3.398000000     0.258000000
H    -3.840000000    -2.769000000     1.246000000
O    -3.780000000     1.056000000     5.358000000
H    -3.652000000     0.151000000     5.073000000
H    -4.248000000     0.981000000     6.190000000
O    -6.724000000     0.898000000     3.104000000
H    -6.858000000     1.281000000     3.971000000
H    -5.773000000     0.885000000     2.993000000
O    -1.803000000    -4.319000000    -0.958000000
H    -0.906000000    -4.348000000    -0.626000000
H    -2.320000000    -3.992000000    -0.222000000
O     0.432000000     3.736000000    -4.492000000
H     1.263000000     4.030000000    -4.865000000
H     0.566000000     3.778000000    -3.545000000
O    -4.472000000    -0.433000000     2.116000000
H    -4.070000000     0.386000000     1.828000000
H    -3.732000000    -0.992000000     2.354000000
O    -6.720000000    -1.654000000     0.726000000
H    -6.126000000    -1.312000000     1.394000000
H    -7.589000000    -1.373000000     1.013000000
