144
-2819.96993
O     4.211000000     2.084000000    -0.690000000
H     4.699000000     2.901000000    -0.591000000
H     4.809000000     1.407000000    -0.373000000
O     0.931000000    -3.401000000    -3.336000000
H     1.611000000    -2.819000000    -2.995000000
H     0.653000000    -3.914000000    -2.578000000
O     3.627000000    -1.874000000    -5.312000000
H     3.316000000    -2.776000000    -5.238000000
H     2.865000000    -1.382000000    -5.619000000
O    -4.811000000     5.188000000    -0.048000000
H    -5.522000000     4.976000000    -0.653000000
H    -4.014000000     5.070000000    -0.565000000
O    -0.354000000     4.806000000     1.442000000
H    -0.333000000     3.897000000     1.145000000
H     0.185000000     4.813000000     2.233000000
O    -3.250000000    -2.483000000    -1.560000000
H    -2.387000000    -2.883000000    -1.455000000
H    -3.499000000    -2.214000000    -0.676000000
O     1.777000000     2.720000000     0.304000000
H     1.401000000     1.871000000     0.538000000
H     2.653000000     2.513000000    -0.019000000
O     2.329000000    -3.149000000     2.938000000
H     2.793000000    -2.623000000     3.590000000
H     1.444000000    -2.784000000     2.922000000
O    -3.893000000     2.131000000     0.184000000
H    -3.296000000     1.628000000    -0.370000000
H    -4.143000000     2.882000000    -0.354000000
O     1.428000000    -7.463000000    -0.938000000
H     2.086000000    -7.507000000    -0.245000000
H     1.289000000    -6.526000000    -1.078000000
O     1.646000000     5.063000000    -1.367000000
H     0.942000000     5.069000000    -0.718000000
H     2.071000000     4.213000000    -1.251000000
O     5.413000000    -2.720000000     2.160000000
H     5.563000000    -1.801000000     2.378000000
H     5.108000000    -3.114000000     2.977000000
O    -2.687000000     3.992000000     5.519000000
H    -2.742000000     4.927000000     5.719000000
H    -3.185000000     3.892000000     4.708000000
O     2.553000000     1.953000000    -6.331000000
H     2.303000000     2.431000000    -7.122000000
H     1.801000000     1.391000000    -6.143000000
O    -3.103000000    -5.045000000     0.343000000
H    -3.359000000    -4.237000000     0.789000000
H    -3.234000000    -4.857000000    -0.586000000
O     0.890000000     1.790000000     7.359000000
H     0.041000000     2.219000000     7.462000000
H     1.050000000     1.798000000     6.415000000
O    -0.565000000     4.643000000    -3.111000000
H     0.216000000     4.759000000    -2.569000000
H    -0.805000000     5.531000000    -3.377000000
O     1.591000000    -4.755000000    -0.860000000
H     2.338000000    -4.242000000    -0.554000000
H     0.948000000    -4.687000000    -0.154000000
O     3.522000000    -3.306000000     0.437000000
H     3.028000000    -3.536000000     1.224000000
H     4.385000000    -3.051000000     0.761000000
O    -2.829000000     0.735000000    -4.778000000
H    -2.248000000     1.294000000    -5.295000000
H    -2.290000000    -0.023000000    -4.549000000
O    -2.727000000     3.967000000    -1.656000000
H    -1.936000000     4.110000000    -2.176000000
H    -3.392000000     3.713000000    -2.296000000
O    -0.728000000    -6.972000000     4.773000000
H    -1.025000000    -6.080000000     4.593000000
H    -0.323000000    -6.919000000     5.639000000
O    -0.775000000    -4.297000000     4.570000000
H    -0.644000000    -3.741000000     3.802000000
H    -0.223000000    -3.905000000     5.246000000
O    -5.083000000     0.359000000     1.834000000
H    -4.345000000     0.259000000     2.435000000
H    -4.707000000     0.781000000     1.062000000
O     0.268000000    -2.085000000     5.831000000
H    -0.162000000    -1.705000000     6.597000000
H    -0.122000000    -1.629000000     5.086000000
O     0.855000000     1.453000000     3.960000000
H     0.380000000     0.623000000     3.998000000
H     1.529000000     1.314000000     3.294000000
O    -4.808000000     2.444000000    -2.926000000
H    -4.854000000     1.492000000    -2.841000000
H    -5.055000000     2.617000000    -3.834000000
O     4.733000000    -5.618000000    -0.908000000
H     4.952000000    -5.972000000    -0.046000000
H     4.338000000    -4.766000000    -0.724000000
O    -1.194000000     7.223000000     0.485000000
H    -0.490000000     7.870000000     0.532000000
H    -0.795000000     6.410000000     0.793000000
O     0.405000000    -0.726000000     8.367000000
H     0.612000000     0.182000000     8.149000000
H    -0.511000000    -0.703000000     8.644000000
O     2.216000000    -5.771000000     2.687000000
H     2.485000000    -4.918000000     3.026000000
H     1.324000000    -5.633000000     2.370000000
O     1.057000000    -0.982000000    -5.912000000
H     0.430000000    -1.485000000    -5.391000000
H     0.513000000    -0.456000000    -6.498000000
O     0.796000000     4.359000000     4.204000000
H     1.682000000     4.550000000     4.511000000
H     0.705000000     3.412000000     4.309000000
O    -0.833000000     2.890000000    -5.698000000
H    -0.339000000     3.512000000    -6.232000000
H    -0.663000000     3.161000000    -4.796000000
O    -0.592000000     0.723000000    -7.483000000
H    -0.236000000     1.579000000    -7.246000000
H    -1.472000000     0.912000000    -7.811000000
O    -4.280000000    -1.870000000     5.526000000
H    -3.954000000    -2.736000000     5.769000000
H    -5.134000000    -1.806000000     5.953000000
O    -3.785000000     3.693000000     2.823000000
H    -4.662000000     3.727000000     2.442000000
H    -3.251000000     3.258000000     2.158000000
O     3.657000000     3.018000000    -4.237000000
H     2.963000000     2.852000000    -4.875000000
H     3.377000000     2.548000000    -3.451000000
O     6.086000000     3.630000000    -2.755000000
H     5.325000000     3.746000000    -3.324000000
H     6.257000000     2.689000000    -2.772000000
O     2.793000000    -2.750000000     5.593000000
H     1.915000000    -2.375000000     5.534000000
H     2.778000000    -3.272000000     6.396000000
O    -3.181000000    -4.384000000     6.061000000
H    -2.793000000    -4.240000000     6.924000000
H    -2.452000000    -4.276000000     5.449000000
O    -3.802000000    -2.687000000     1.229000000
H    -3.546000000    -2.150000000     1.978000000
H    -4.739000000    -2.842000000     1.354000000
O     2.844000000     4.816000000     1.927000000
H     2.356000000     4.157000000     1.433000000
H     3.744000000     4.489000000     1.938000000
O    -5.862000000     1.549000000     4.754000000
H    -5.281000000     1.567000000     5.513000000
H    -5.375000000     2.006000000     4.068000000
O    -0.427000000    -4.746000000     1.174000000
H    -1.317000000    -5.000000000     0.929000000
H    -0.545000000    -4.117000000     1.886000000
O    -1.581000000    -1.983000000    -4.346000000
H    -1.796000000    -2.410000000    -5.176000000
H    -1.039000000    -2.621000000    -3.882000000
O     2.044000000    -4.939000000    -5.442000000
H     2.524000000    -5.395000000    -4.751000000
H     1.378000000    -4.432000000    -4.977000000
O    -3.154000000    -0.876000000     3.398000000
H    -2.274000000    -0.776000000     3.763000000
H    -3.711000000    -1.039000000     4.159000000
