144
-2829.10418
O     2.532000000     0.136000000     3.456000000
H     2.707000000     0.685000000     2.691000000
H     3.175000000    -0.571000000     3.396000000
O     0.072000000    -3.387000000    -1.009000000
H     0.907000000    -3.856000000    -1.000000000
H     0.296000000    -2.492000000    -0.754000000
O     4.345000000    -1.655000000    -5.588000000
H     3.724000000    -2.128000000    -5.036000000
H     4.792000000    -1.057000000    -4.989000000
O    -5.632000000     0.076000000    -2.465000000
H    -5.264000000    -0.034000000    -1.588000000
H    -5.228000000     0.878000000    -2.796000000
O    -4.457000000    -0.472000000    -0.198000000
H    -3.780000000    -1.121000000    -0.395000000
H    -4.948000000    -0.852000000     0.530000000
O     0.264000000     3.241000000     2.325000000
H     1.087000000     3.606000000     2.000000000
H    -0.254000000     3.079000000     1.537000000
O     2.728000000    -3.319000000     7.280000000
H     2.175000000    -3.750000000     7.932000000
H     2.110000000    -2.937000000     6.656000000
O     1.213000000    -2.247000000     5.126000000
H     1.480000000    -1.417000000     4.733000000
H     0.552000000    -2.594000000     4.527000000
O    -4.061000000     2.458000000     0.048000000
H    -4.139000000     2.607000000    -0.895000000
H    -4.016000000     1.506000000     0.137000000
O     2.226000000    -5.698000000    -0.067000000
H     1.879000000    -6.567000000     0.135000000
H     2.064000000    -5.186000000     0.725000000
O     2.310000000    -2.954000000    -4.605000000
H     1.355000000    -2.977000000    -4.554000000
H     2.562000000    -3.860000000    -4.783000000
O    -4.549000000    -0.466000000    -5.074000000
H    -3.761000000     0.046000000    -4.894000000
H    -4.912000000    -0.658000000    -4.210000000
O     3.968000000     6.480000000    -2.688000000
H     4.359000000     6.423000000    -3.559000000
H     4.199000000     5.652000000    -2.267000000
O    -0.868000000     4.793000000    -0.311000000
H    -1.369000000     5.120000000     0.436000000
H    -0.272000000     5.510000000    -0.531000000
O     1.458000000     2.406000000    -5.354000000
H     2.375000000     2.331000000    -5.619000000
H     1.184000000     1.506000000    -5.179000000
O    -1.591000000    -4.644000000     1.351000000
H    -1.408000000    -3.964000000     1.999000000
H    -1.412000000    -4.227000000     0.509000000
O    -1.993000000     4.595000000    -2.833000000
H    -1.582000000     4.454000000    -1.981000000
H    -2.518000000     5.387000000    -2.718000000
O     1.564000000    -4.221000000     2.155000000
H     0.865000000    -3.662000000     2.495000000
H     2.329000000    -3.996000000     2.686000000
O     5.265000000    -2.529000000     3.041000000
H     5.862000000    -3.250000000     2.843000000
H     5.259000000    -2.479000000     3.997000000
O    -3.781000000     2.742000000    -6.065000000
H    -3.450000000     2.165000000    -6.754000000
H    -2.997000000     3.144000000    -5.691000000
O    -4.581000000     2.668000000    -2.738000000
H    -5.252000000     2.862000000    -3.393000000
H    -3.764000000     2.967000000    -3.136000000
O    -4.486000000    -4.537000000     3.643000000
H    -5.385000000    -4.791000000     3.432000000
H    -4.498000000    -3.580000000     3.630000000
O    -4.284000000    -1.888000000     3.609000000
H    -3.457000000    -1.612000000     3.213000000
H    -4.367000000    -1.344000000     4.392000000
O    -5.279000000     1.262000000     2.458000000
H    -4.450000000     0.959000000     2.828000000
H    -5.024000000     1.860000000     1.756000000
O    -1.370000000    -0.144000000     5.726000000
H    -0.687000000     0.496000000     5.526000000
H    -1.619000000    -0.503000000     4.874000000
O    -3.401000000    -6.979000000     1.933000000
H    -3.105000000    -6.107000000     2.193000000
H    -4.309000000    -6.851000000     1.657000000
O     5.022000000     1.215000000    -1.741000000
H     5.811000000     1.354000000    -1.217000000
H     5.296000000     0.611000000    -2.431000000
O     5.777000000     0.113000000    -3.972000000
H     6.525000000    -0.149000000    -4.509000000
H     5.264000000     0.688000000    -4.540000000
O    -0.163000000    -7.327000000     3.762000000
H    -0.537000000    -6.457000000     3.901000000
H    -0.127000000    -7.715000000     4.637000000
O     1.116000000    -0.647000000    -5.496000000
H     1.578000000    -1.410000000    -5.149000000
H     0.705000000    -0.963000000    -6.301000000
O     3.503000000     1.418000000     1.174000000
H     4.137000000     2.083000000     0.903000000
H     3.321000000     0.922000000     0.376000000
O     1.370000000     7.188000000    -3.315000000
H     1.169000000     6.499000000    -3.949000000
H     2.251000000     6.980000000    -3.005000000
O    -1.165000000     3.158000000    -4.973000000
H    -0.219000000     3.284000000    -4.903000000
H    -1.520000000     3.567000000    -4.183000000
O    -1.816000000     0.238000000    -4.791000000
H    -1.069000000    -0.357000000    -4.736000000
H    -1.434000000     1.111000000    -4.705000000
O    -0.460000000     2.016000000    -7.956000000
H    -1.391000000     2.003000000    -8.178000000
H    -0.429000000     2.409000000    -7.083000000
O    -4.356000000    -0.679000000     6.241000000
H    -3.461000000    -0.354000000     6.338000000
H    -4.618000000    -0.928000000     7.128000000
O     1.502000000     5.251000000    -5.369000000
H     1.546000000     4.295000000    -5.345000000
H     1.100000000     5.452000000    -6.214000000
O    -3.959000000     4.031000000     2.278000000
H    -4.828000000     4.396000000     2.108000000
H    -3.708000000     3.617000000     1.453000000
O     6.297000000     3.606000000    -3.435000000
H     5.869000000     4.202000000    -4.049000000
H     5.577000000     3.204000000    -2.950000000
O     4.227000000     1.416000000    -6.085000000
H     3.910000000     0.535000000    -6.282000000
H     4.763000000     1.653000000    -6.841000000
O     4.435000000     4.516000000    -0.944000000
H     4.186000000     4.753000000    -0.050000000
H     5.381000000     4.381000000    -0.901000000
O    -0.586000000    -1.990000000     7.696000000
H    -0.988000000    -1.128000000     7.800000000
H    -0.162000000    -1.955000000     6.838000000
O    -5.690000000    -2.295000000     1.498000000
H    -5.218000000    -2.181000000     2.323000000
H    -6.142000000    -3.133000000     1.593000000
O    -2.819000000    -2.815000000    -0.712000000
H    -3.469000000    -3.305000000    -1.215000000
H    -1.980000000    -3.058000000    -1.104000000
O    -1.789000000    -4.946000000     4.605000000
H    -2.730000000    -4.774000000     4.580000000
H    -1.401000000    -4.226000000     4.108000000
O     0.270000000     1.550000000     4.464000000
H    -0.118000000     2.071000000     3.761000000
H     1.051000000     1.161000000     4.070000000
O    -0.365000000    -2.959000000    -4.036000000
H    -1.219000000    -3.382000000    -4.115000000
H    -0.251000000    -2.824000000    -3.095000000
O    -2.931000000     1.368000000     3.606000000
H    -2.574000000     0.480000000     3.579000000
H    -2.970000000     1.583000000     4.538000000
