144
-2824.55858
O     1.686000000     2.061000000     1.851000000
H     2.341000000     1.981000000     1.157000000
H     0.852000000     1.895000000     1.413000000
O     0.322000000    -3.133000000    -3.949000000
H    -0.537000000    -3.515000000    -3.766000000
H     0.886000000    -3.466000000    -3.251000000
O    -4.327000000    -0.006000000     2.197000000
H    -5.179000000    -0.427000000     2.084000000
H    -4.291000000     0.653000000     1.504000000
O    -3.213000000     2.513000000    -4.113000000
H    -2.406000000     2.755000000    -4.567000000
H    -3.150000000     1.565000000    -3.999000000
O     2.030000000    -3.761000000    -2.025000000
H     2.961000000    -3.861000000    -2.224000000
H     1.930000000    -4.134000000    -1.150000000
O     3.354000000    -1.485000000    -3.462000000
H     2.572000000    -2.030000000    -3.372000000
H     3.543000000    -1.189000000    -2.571000000
O    -3.854000000     0.984000000     4.568000000
H    -2.980000000     1.019000000     4.957000000
H    -3.752000000     0.419000000     3.802000000
O     0.971000000    -6.812000000     4.256000000
H     0.081000000    -6.722000000     4.596000000
H     1.292000000    -5.914000000     4.182000000
O    -4.843000000     5.154000000     0.491000000
H    -5.325000000     5.639000000     1.161000000
H    -5.521000000     4.819000000    -0.096000000
O     4.005000000     4.131000000    -2.460000000
H     3.232000000     3.978000000    -3.005000000
H     4.717000000     4.261000000    -3.086000000
O     4.931000000    -2.759000000    -0.002000000
H     4.494000000    -2.812000000     0.848000000
H     4.744000000    -1.873000000    -0.313000000
O     4.834000000     1.669000000    -5.552000000
H     3.880000000     1.606000000    -5.513000000
H     5.010000000     2.609000000    -5.590000000
O     5.965000000     0.746000000    -3.198000000
H     5.294000000     0.990000000    -3.836000000
H     6.443000000     0.030000000    -3.615000000
O     0.204000000    -0.404000000    -5.324000000
H    -0.750000000    -0.364000000    -5.392000000
H     0.370000000    -1.102000000    -4.689000000
O     1.101000000    -0.471000000     8.057000000
H     1.143000000    -0.623000000     7.113000000
H     1.963000000    -0.730000000     8.380000000
O    -0.868000000     3.025000000    -5.534000000
H    -0.003000000     3.355000000    -5.291000000
H    -1.296000000     3.767000000    -5.961000000
O     1.633000000    -4.838000000     0.612000000
H     1.517000000    -4.152000000     1.270000000
H     0.766000000    -4.943000000     0.220000000
O    -1.153000000     1.553000000     4.577000000
H    -0.363000000     1.283000000     5.046000000
H    -0.969000000     2.448000000     4.292000000
O     3.550000000    -6.558000000     1.288000000
H     2.965000000    -7.298000000     1.450000000
H     2.963000000    -5.818000000     1.132000000
O     1.836000000     1.370000000    -6.238000000
H     1.117000000     0.999000000    -5.726000000
H     2.040000000     0.696000000    -6.887000000
O     0.232000000     5.185000000     2.061000000
H     0.422000000     4.837000000     1.189000000
H     0.265000000     6.135000000     1.952000000
O    -4.688000000    -3.786000000     4.402000000
H    -3.937000000    -3.362000000     3.986000000
H    -4.424000000    -4.702000000     4.496000000
O     4.113000000    -2.686000000     2.593000000
H     3.161000000    -2.647000000     2.504000000
H     4.340000000    -1.896000000     3.084000000
O     4.342000000    -0.448000000    -1.260000000
H     5.089000000    -0.184000000    -1.798000000
H     4.106000000     0.342000000    -0.774000000
O    -3.166000000    -0.045000000    -3.388000000
H    -3.870000000     0.130000000    -2.763000000
H    -2.560000000    -0.614000000    -2.914000000
O    -0.700000000    -4.970000000    -0.431000000
H    -1.301000000    -5.164000000    -1.151000000
H    -1.267000000    -4.663000000     0.277000000
O    -1.242000000    -3.637000000     4.956000000
H    -1.474000000    -3.172000000     5.760000000
H    -0.931000000    -2.953000000     4.364000000
O    -4.362000000     0.102000000    -6.296000000
H    -5.159000000     0.107000000    -6.827000000
H    -4.588000000     0.618000000    -5.521000000
O    -2.923000000    -2.300000000     2.620000000
H    -3.387000000    -1.481000000     2.796000000
H    -2.096000000    -2.213000000     3.094000000
O    -1.507000000    -1.794000000    -1.782000000
H    -0.634000000    -2.172000000    -1.884000000
H    -1.400000000    -1.120000000    -1.110000000
O     1.928000000     1.045000000     4.323000000
H     2.599000000     1.533000000     4.800000000
H     1.775000000     1.560000000     3.531000000
O     1.478000000    -1.339000000     5.283000000
H     1.775000000    -0.455000000     5.065000000
H     1.020000000    -1.638000000     4.498000000
O     4.718000000    -4.104000000    -2.514000000
H     5.135000000    -3.455000000    -3.081000000
H     5.039000000    -3.895000000    -1.636000000
O     3.823000000     2.286000000     0.088000000
H     4.376000000     2.843000000     0.635000000
H     3.754000000     2.758000000    -0.742000000
O    -5.152000000     3.815000000    -2.921000000
H    -5.653000000     3.800000000    -3.736000000
H    -4.306000000     3.432000000    -3.151000000
O     0.850000000     4.462000000    -3.322000000
H     0.580000000     5.377000000    -3.397000000
H     0.058000000     3.999000000    -3.050000000
O    -1.574000000    -6.448000000     5.665000000
H    -1.316000000    -5.620000000     5.261000000
H    -0.917000000    -6.598000000     6.344000000
O    -3.191000000     6.010000000    -1.766000000
H    -2.488000000     6.601000000    -1.495000000
H    -3.504000000     5.619000000    -0.950000000
O     5.422000000    -5.359000000     2.986000000
H     5.216000000    -4.426000000     3.056000000
H     4.804000000    -5.692000000     2.336000000
O     0.256000000     5.450000000    -0.705000000
H     0.473000000     5.301000000    -1.625000000
H    -0.092000000     6.341000000    -0.681000000
O    -4.824000000    -0.243000000    -0.946000000
H    -5.128000000    -0.931000000    -1.538000000
H    -5.419000000    -0.290000000    -0.198000000
O     3.358000000    -3.905000000     6.293000000
H     2.970000000    -3.034000000     6.372000000
H     2.868000000    -4.322000000     5.585000000
O    -1.666000000     0.533000000    -7.392000000
H    -1.012000000     1.183000000    -7.136000000
H    -2.498000000     1.007000000    -7.369000000
O    -1.704000000    -2.260000000     7.372000000
H    -1.533000000    -1.319000000     7.385000000
H    -1.066000000    -2.628000000     7.983000000
O    -3.250000000    -3.349000000     0.102000000
H    -2.702000000    -2.778000000    -0.436000000
H    -3.275000000    -2.922000000     0.958000000
O     1.561000000    -4.291000000     4.321000000
H     1.805000000    -3.779000000     3.550000000
H     0.786000000    -3.849000000     4.667000000
O    -4.231000000     2.397000000     0.622000000
H    -4.127000000     3.332000000     0.803000000
H    -4.383000000     2.352000000    -0.322000000
O     2.292000000    -3.516000000    -5.821000000
H     2.916000000    -2.790000000    -5.788000000
H     1.605000000    -3.269000000    -5.201000000
