144
-2808.24549
O     4.442000000     2.149000000    -3.722000000
H     5.295000000     1.879000000    -3.383000000
H     4.136000000     1.396000000    -4.227000000
O     1.227000000    -4.545000000    -0.768000000
H     0.779000000    -4.485000000    -1.612000000
H     2.053000000    -4.987000000    -0.967000000
O    -1.006000000    -5.551000000    -3.430000000
H    -1.345000000    -4.824000000    -2.906000000
H    -1.745000000    -6.154000000    -3.507000000
O    -5.846000000     2.560000000     4.161000000
H    -5.275000000     2.161000000     3.505000000
H    -5.247000000     2.980000000     4.778000000
O     2.646000000     0.827000000     4.602000000
H     2.280000000     0.096000000     5.099000000
H     1.889000000     1.229000000     4.175000000
O    -2.681000000     4.530000000     4.219000000
H    -2.180000000     3.869000000     4.696000000
H    -2.125000000     4.762000000     3.475000000
O    -2.032000000     4.007000000    -2.755000000
H    -1.363000000     4.287000000    -3.380000000
H    -2.033000000     4.688000000    -2.083000000
O     5.046000000    -4.026000000    -3.852000000
H     4.095000000    -4.097000000    -3.767000000
H     5.225000000    -4.277000000    -4.758000000
O    -0.212000000    -5.488000000     1.268000000
H    -1.054000000    -5.206000000     0.912000000
H     0.430000000    -5.212000000     0.614000000
O    -2.067000000     5.973000000    -0.971000000
H    -1.994000000     6.920000000    -1.092000000
H    -1.177000000     5.688000000    -0.766000000
O     2.464000000     3.742000000     1.310000000
H     2.936000000     2.924000000     1.153000000
H     2.704000000     4.303000000     0.573000000
O    -2.720000000    -0.783000000     5.871000000
H    -2.206000000    -0.029000000     6.160000000
H    -2.364000000    -1.000000000     5.010000000
O     1.076000000     2.584000000     3.272000000
H     1.710000000     2.749000000     2.573000000
H     0.285000000     3.044000000     2.991000000
O    -4.448000000     0.491000000     2.760000000
H    -4.821000000    -0.306000000     3.138000000
H    -3.512000000     0.430000000     2.951000000
O     0.735000000    -6.528000000     3.592000000
H    -0.054000000    -6.924000000     3.961000000
H     0.445000000    -6.142000000     2.765000000
O    -0.768000000     5.298000000     2.221000000
H    -0.159000000     4.776000000     1.698000000
H    -0.607000000     6.200000000     1.946000000
O    -5.254000000    -2.589000000     3.293000000
H    -5.685000000    -2.508000000     2.442000000
H    -4.498000000    -3.152000000     3.125000000
O     0.350000000     2.131000000    -5.387000000
H     0.452000000     2.380000000    -6.306000000
H     0.717000000     2.867000000    -4.897000000
O     3.921000000    -4.262000000     4.598000000
H     3.044000000    -3.910000000     4.443000000
H     4.141000000    -3.976000000     5.484000000
O     1.741000000    -2.957000000     3.600000000
H     0.847000000    -2.618000000     3.634000000
H     2.294000000    -2.192000000     3.754000000
O    -4.296000000    -1.300000000    -0.735000000
H    -4.412000000    -0.353000000    -0.655000000
H    -5.071000000    -1.672000000    -0.314000000
O    -1.723000000    -3.750000000     4.273000000
H    -2.382000000    -3.908000000     3.597000000
H    -1.200000000    -3.023000000     3.933000000
O     3.016000000    -3.385000000     0.904000000
H     2.731000000    -3.514000000     1.808000000
H     2.282000000    -3.698000000     0.375000000
O     2.090000000    -4.109000000    -4.019000000
H     2.145000000    -5.064000000    -4.014000000
H     1.316000000    -3.916000000    -4.549000000
O     0.746000000     6.960000000    -2.489000000
H     0.435000000     6.186000000    -2.958000000
H     0.050000000     7.607000000    -2.605000000
O     3.211000000     0.675000000    -5.657000000
H     2.832000000    -0.203000000    -5.617000000
H     2.468000000     1.248000000    -5.848000000
O     3.785000000    -6.075000000     2.454000000
H     2.832000000    -5.999000000     2.404000000
H     4.019000000    -5.633000000     3.270000000
O    -0.445000000    -3.073000000    -5.363000000
H    -1.335000000    -3.291000000    -5.084000000
H    -0.551000000    -2.304000000    -5.922000000
O    -4.585000000     1.221000000     0.071000000
H    -4.852000000     2.115000000    -0.142000000
H    -4.628000000     1.179000000     1.026000000
O    -0.278000000     5.287000000    -4.374000000
H    -0.706000000     6.054000000    -4.755000000
H     0.564000000     5.234000000    -4.826000000
O     3.018000000     5.401000000    -1.424000000
H     3.185000000     6.341000000    -1.480000000
H     3.881000000     5.011000000    -1.287000000
O    -1.460000000    -3.143000000    -1.840000000
H    -2.132000000    -3.071000000    -1.161000000
H    -1.006000000    -2.301000000    -1.817000000
O    -0.944000000    -0.599000000    -6.120000000
H    -1.842000000    -0.453000000    -6.416000000
H    -0.659000000     0.253000000    -5.792000000
O     0.679000000    -0.799000000     5.885000000
H     1.196000000    -1.457000000     6.350000000
H     0.105000000    -1.307000000     5.312000000
O    -0.638000000    -3.358000000     8.196000000
H    -0.417000000    -3.962000000     8.906000000
H    -0.589000000    -3.893000000     7.404000000
O    -5.342000000     0.106000000     6.836000000
H    -4.792000000    -0.363000000     6.208000000
H    -4.988000000     0.995000000     6.848000000
O    -1.334000000     2.270000000     4.508000000
H    -1.680000000     1.509000000     4.042000000
H    -0.390000000     2.118000000     4.548000000
O     2.983000000     0.901000000     0.738000000
H     2.034000000     0.880000000     0.863000000
H     3.183000000     0.083000000     0.283000000
O    -0.271000000    -5.418000000     6.056000000
H    -0.932000000    -5.080000000     5.452000000
H     0.367000000    -5.855000000     5.491000000
O     0.232000000     4.628000000    -0.881000000
H     0.578000000     3.736000000    -0.882000000
H     1.009000000     5.186000000    -0.852000000
O     2.438000000     3.955000000    -3.764000000
H     3.165000000     3.333000000    -3.814000000
H     2.626000000     4.480000000    -2.986000000
O     4.707000000    -1.516000000    -0.143000000
H     5.114000000    -1.128000000     0.632000000
H     4.151000000    -2.214000000     0.203000000
O    -3.089000000     1.428000000    -2.642000000
H    -2.758000000     2.323000000    -2.709000000
H    -3.222000000     1.291000000    -1.704000000
O     4.826000000     2.819000000    -0.309000000
H     4.253000000     2.062000000    -0.432000000
H     5.425000000     2.789000000    -1.055000000
O     4.520000000    -1.168000000    -2.879000000
H     4.252000000    -1.138000000    -1.961000000
H     4.555000000    -2.101000000    -3.088000000
O    -0.067000000     1.477000000     7.138000000
H     0.278000000     0.877000000     6.476000000
H    -0.211000000     0.927000000     7.908000000
O    -2.493000000    -1.547000000     8.384000000
H    -2.845000000    -1.212000000     7.559000000
H    -1.752000000    -2.093000000     8.124000000
O     2.449000000    -1.852000000    -5.807000000
H     2.117000000    -2.384000000    -5.084000000
H     1.986000000    -2.180000000    -6.578000000
