144
-2831.19067
O     0.805000000    -4.540000000    -2.062000000
H     0.376000000    -3.992000000    -2.719000000
H     1.590000000    -4.868000000    -2.499000000
O     4.377000000     1.917000000    -3.728000000
H     3.874000000     1.403000000    -4.360000000
H     4.093000000     2.820000000    -3.873000000
O     4.400000000    -1.396000000     3.072000000
H     3.785000000    -2.101000000     3.278000000
H     5.235000000    -1.840000000     2.931000000
O     5.651000000    -3.416000000     1.546000000
H     5.900000000    -3.277000000     0.632000000
H     4.835000000    -3.914000000     1.499000000
O    -2.774000000    -5.022000000     1.163000000
H    -3.173000000    -4.689000000     0.359000000
H    -2.442000000    -4.241000000     1.607000000
O     1.690000000     3.287000000     2.618000000
H     1.309000000     4.072000000     2.224000000
H     1.325000000     3.262000000     3.503000000
O     0.836000000     1.736000000    -7.775000000
H     0.967000000     1.796000000    -8.721000000
H     1.233000000     0.899000000    -7.531000000
O     3.056000000    -3.667000000    -5.225000000
H     3.875000000    -4.161000000    -5.197000000
H     3.282000000    -2.808000000    -4.867000000
O     1.252000000    -5.825000000     3.957000000
H     0.872000000    -6.591000000     4.387000000
H     0.721000000    -5.090000000     4.265000000
O    -1.976000000    -1.173000000    -5.549000000
H    -2.214000000    -2.020000000    -5.925000000
H    -1.114000000    -1.318000000    -5.159000000
O    -1.507000000     4.158000000     2.584000000
H    -1.612000000     4.263000000     3.529000000
H    -2.343000000     3.796000000     2.289000000
O     0.835000000     2.523000000     5.244000000
H     0.605000000     1.839000000     4.615000000
H     0.289000000     2.337000000     6.008000000
O     2.749000000     1.738000000     0.579000000
H     2.070000000     1.329000000     0.042000000
H     2.268000000     2.172000000     1.284000000
O     2.936000000    -3.407000000     6.524000000
H     3.128000000    -4.130000000     7.121000000
H     2.333000000    -2.846000000     7.013000000
O    -4.497000000    -1.139000000    -0.172000000
H    -3.607000000    -1.349000000    -0.456000000
H    -4.851000000    -1.971000000     0.141000000
O     2.409000000     1.224000000     7.127000000
H     2.436000000     2.071000000     6.681000000
H     2.446000000     0.581000000     6.419000000
O     1.379000000    -1.620000000     7.718000000
H     1.844000000    -0.863000000     7.362000000
H     1.139000000    -1.357000000     8.607000000
O    -5.319000000     0.637000000    -1.908000000
H    -5.134000000     0.078000000    -1.154000000
H    -4.903000000     0.189000000    -2.645000000
O     5.775000000    -0.999000000    -2.687000000
H     6.321000000    -1.314000000    -1.967000000
H     5.637000000    -0.072000000    -2.495000000
O     3.325000000    -4.497000000     1.532000000
H     2.462000000    -4.737000000     1.192000000
H     3.165000000    -4.261000000     2.445000000
O    -3.373000000     4.644000000    -2.716000000
H    -3.183000000     3.955000000    -3.352000000
H    -3.389000000     5.449000000    -3.233000000
O     1.884000000     1.804000000    -5.346000000
H     1.400000000     2.054000000    -6.133000000
H     1.441000000     2.267000000    -4.635000000
O    -2.077000000    -2.207000000    -0.872000000
H    -1.334000000    -1.716000000    -0.521000000
H    -1.687000000    -2.819000000    -1.495000000
O     1.508000000     5.703000000    -1.573000000
H     1.583000000     6.552000000    -1.138000000
H     0.939000000     5.189000000    -1.000000000
O     2.765000000    -3.230000000     3.913000000
H     1.924000000    -2.799000000     3.759000000
H     2.853000000    -3.250000000     4.866000000
O    -2.653000000     1.667000000     3.983000000
H    -1.744000000     1.454000000     3.773000000
H    -2.836000000     1.174000000     4.783000000
O    -0.146000000     4.118000000     0.079000000
H    -0.506000000     3.335000000    -0.338000000
H    -0.311000000     3.989000000     1.013000000
O     0.405000000    -2.974000000    -5.942000000
H    -0.195000000    -3.715000000    -6.026000000
H     1.259000000    -3.376000000    -5.780000000
O    -2.629000000    -5.386000000     3.659000000
H    -2.822000000    -4.456000000     3.773000000
H    -2.333000000    -5.460000000     2.752000000
O     0.733000000    -4.765000000     0.687000000
H     0.657000000    -4.846000000    -0.264000000
H     0.656000000    -5.663000000     1.011000000
O    -0.816000000    -4.817000000     5.839000000
H    -0.813000000    -3.860000000     5.825000000
H    -1.239000000    -5.067000000     5.017000000
O    -2.165000000     0.010000000     6.391000000
H    -1.730000000     0.769000000     6.779000000
H    -1.452000000    -0.596000000     6.187000000
O    -0.893000000     2.083000000     7.279000000
H    -1.342000000     2.919000000     7.400000000
H    -0.485000000     1.905000000     8.126000000
O    -3.129000000     2.345000000    -4.263000000
H    -3.517000000     1.476000000    -4.374000000
H    -2.473000000     2.404000000    -4.958000000
O     2.569000000    -0.557000000     5.118000000
H     3.252000000    -0.706000000     4.465000000
H     1.752000000    -0.753000000     4.659000000
O    -3.307000000     0.575000000    -7.272000000
H    -2.860000000     0.017000000    -6.634000000
H    -3.989000000     1.016000000    -6.766000000
O    -1.559000000    -3.668000000    -3.518000000
H    -1.660000000    -4.616000000    -3.439000000
H    -2.054000000    -3.439000000    -4.305000000
O     3.634000000     4.531000000    -2.980000000
H     2.835000000     4.483000000    -2.455000000
H     4.137000000     5.243000000    -2.584000000
O    -0.938000000    -3.465000000     2.418000000
H    -0.489000000    -2.720000000     2.817000000
H    -0.307000000    -3.817000000     1.790000000
O     5.763000000    -3.987000000    -1.392000000
H     6.599000000    -4.151000000    -1.828000000
H     5.442000000    -3.176000000    -1.786000000
O    -0.641000000    -2.135000000     6.106000000
H    -0.285000000    -1.663000000     5.353000000
H     0.067000000    -2.128000000     6.750000000
O     1.795000000    -0.906000000    -7.396000000
H     1.258000000    -1.281000000    -6.698000000
H     1.455000000    -1.302000000    -8.198000000
O    -4.358000000    -0.361000000    -4.261000000
H    -3.530000000    -0.841000000    -4.293000000
H    -4.890000000    -0.756000000    -4.952000000
O     3.507000000    -1.290000000    -3.996000000
H     4.331000000    -1.145000000    -3.531000000
H     3.017000000    -0.477000000    -3.874000000
O    -1.482000000     4.687000000     5.095000000
H    -1.473000000     5.614000000     5.334000000
H    -0.680000000     4.332000000     5.478000000
O     0.708000000     3.890000000    -4.095000000
H     1.369000000     4.364000000    -3.590000000
H     0.096000000     4.568000000    -4.382000000
O     4.505000000    -0.318000000     0.539000000
H     4.475000000    -0.839000000     1.341000000
H     3.823000000     0.343000000     0.656000000
O    -4.116000000     3.675000000     1.678000000
H    -4.833000000     3.227000000     2.126000000
H    -4.172000000     3.369000000     0.772000000
