144
-2823.85759
O     5.272000000     0.844000000    -6.340000000
H     4.389000000     0.821000000    -5.970000000
H     5.216000000     1.480000000    -7.053000000
O     2.486000000     1.157000000     3.953000000
H     2.497000000     0.861000000     4.863000000
H     1.670000000     1.651000000     3.871000000
O    -4.081000000     1.155000000    -1.964000000
H    -4.097000000     2.000000000    -2.413000000
H    -4.399000000     1.347000000    -1.082000000
O    -1.386000000     4.342000000    -1.782000000
H    -1.147000000     3.864000000    -0.987000000
H    -1.827000000     3.691000000    -2.328000000
O     2.308000000    -4.687000000     2.038000000
H     3.025000000    -4.512000000     1.428000000
H     2.570000000    -4.247000000     2.847000000
O    -1.523000000    -4.254000000    -4.110000000
H    -1.809000000    -5.167000000    -4.103000000
H    -1.426000000    -4.027000000    -3.185000000
O    -0.370000000     2.642000000     3.363000000
H    -0.687000000     2.066000000     4.058000000
H    -0.350000000     3.511000000     3.763000000
O     0.729000000    -6.076000000     3.664000000
H     0.942000000    -5.580000000     2.873000000
H     1.337000000    -5.746000000     4.325000000
O     4.769000000     0.845000000     2.051000000
H     5.095000000     1.701000000     1.774000000
H     4.009000000     1.043000000     2.598000000
O     5.363000000     5.167000000    -0.043000000
H     4.620000000     4.994000000    -0.620000000
H     5.831000000     5.889000000    -0.464000000
O     0.810000000     4.210000000    -3.631000000
H     1.041000000     5.092000000    -3.920000000
H     0.010000000     4.327000000    -3.119000000
O    -4.605000000    -0.303000000     1.942000000
H    -5.056000000    -1.019000000     1.494000000
H    -3.764000000    -0.677000000     2.204000000
O     6.971000000     2.884000000    -3.112000000
H     6.104000000     2.477000000    -3.136000000
H     6.831000000     3.766000000    -3.457000000
O     1.024000000    -4.744000000    -0.679000000
H     0.344000000    -4.075000000    -0.754000000
H     1.844000000    -4.250000000    -0.660000000
O    -5.544000000     1.547000000     0.367000000
H    -6.478000000     1.375000000     0.246000000
H    -5.271000000     0.925000000     1.041000000
O    -2.886000000    -5.882000000     1.698000000
H    -2.213000000    -6.305000000     1.164000000
H    -2.395000000    -5.396000000     2.361000000
O    -1.690000000    -4.047000000     3.314000000
H    -1.778000000    -3.284000000     2.742000000
H    -0.751000000    -4.231000000     3.324000000
O     0.728000000    -2.216000000     5.740000000
H     0.216000000    -1.966000000     4.971000000
H     1.437000000    -2.756000000     5.392000000
O     4.604000000     1.858000000    -3.385000000
H     4.388000000     0.957000000    -3.145000000
H     3.877000000     2.378000000    -3.044000000
O    -3.441000000    -4.809000000     5.300000000
H    -2.842000000    -4.589000000     4.586000000
H    -2.872000000    -4.937000000     6.059000000
O     1.715000000     4.560000000     0.452000000
H     0.898000000     4.173000000     0.768000000
H     2.272000000     4.611000000     1.228000000
O     2.997000000     4.273000000    -1.919000000
H     2.444000000     4.466000000    -2.676000000
H     2.446000000     4.472000000    -1.162000000
O    -1.391000000     0.530000000     4.835000000
H    -2.131000000     0.186000000     5.335000000
H    -0.889000000    -0.246000000     4.586000000
O    -3.857000000    -3.887000000    -0.511000000
H    -4.126000000    -3.775000000     0.401000000
H    -3.660000000    -4.821000000    -0.589000000
O    -4.743000000     2.123000000     3.573000000
H    -5.567000000     1.868000000     3.988000000
H    -4.521000000     1.383000000     3.008000000
O    -5.543000000    -3.353000000     4.461000000
H    -4.914000000    -4.067000000     4.567000000
H    -5.169000000    -2.629000000     4.963000000
O     0.130000000     3.940000000    -6.662000000
H     0.554000000     3.175000000    -6.271000000
H    -0.095000000     3.662000000    -7.549000000
O     4.988000000     3.715000000     2.216000000
H     4.223000000     4.142000000     2.601000000
H     5.137000000     4.184000000     1.395000000
O    -7.261000000     0.136000000    -2.307000000
H    -6.903000000     0.380000000    -3.161000000
H    -6.563000000    -0.370000000    -1.890000000
O    -2.409000000     1.829000000    -6.109000000
H    -2.504000000     1.827000000    -7.062000000
H    -1.464000000     1.811000000    -5.963000000
O     0.049000000     0.805000000    -5.910000000
H    -0.079000000     0.096000000    -6.540000000
H     0.946000000     0.690000000    -5.599000000
O    -0.817000000     2.907000000     0.445000000
H    -0.727000000     2.096000000    -0.055000000
H    -0.927000000     2.619000000     1.351000000
O     5.375000000    -0.868000000     4.309000000
H     5.220000000     0.037000000     4.040000000
H     6.303000000    -1.016000000     4.128000000
O     2.656000000    -3.161000000    -3.278000000
H     3.104000000    -2.380000000    -3.602000000
H     2.417000000    -2.944000000    -2.377000000
O    -4.562000000    -3.141000000     1.954000000
H    -4.855000000    -3.568000000     2.759000000
H    -3.926000000    -2.488000000     2.247000000
O     2.606000000    -2.435000000    -0.764000000
H     3.410000000    -2.134000000    -0.341000000
H     1.911000000    -1.929000000    -0.345000000
O     1.948000000     0.432000000     6.535000000
H     1.664000000    -0.412000000     6.184000000
H     1.159000000     0.806000000     6.927000000
O     5.037000000    -1.141000000    -2.890000000
H     5.642000000    -1.307000000    -2.167000000
H     5.501000000    -1.454000000    -3.667000000
O    -3.386000000    -1.562000000     5.208000000
H    -2.897000000    -1.731000000     4.403000000
H    -2.904000000    -2.037000000     5.885000000
O     2.688000000    -4.163000000     4.829000000
H     3.478000000    -3.703000000     5.112000000
H     2.739000000    -5.016000000     5.261000000
O    -3.444000000    -0.237000000    -4.582000000
H    -3.186000000     0.513000000    -5.118000000
H    -3.586000000     0.131000000    -3.709000000
O     4.421000000    -1.616000000     1.090000000
H     4.495000000    -0.689000000     1.314000000
H     5.297000000    -1.971000000     1.243000000
O    -5.809000000    -0.932000000     6.652000000
H    -5.789000000    -1.602000000     7.336000000
H    -4.960000000    -1.010000000     6.216000000
O    -4.987000000    -1.463000000    -1.615000000
H    -4.363000000    -0.749000000    -1.747000000
H    -4.471000000    -2.158000000    -1.206000000
O    -1.307000000    -3.354000000    -1.352000000
H    -2.199000000    -3.285000000    -1.011000000
H    -1.104000000    -2.474000000    -1.670000000
O    -3.177000000     3.088000000    -3.693000000
H    -2.869000000     2.639000000    -4.480000000
H    -4.103000000     3.261000000    -3.863000000
O     2.652000000     2.281000000    -5.971000000
H     2.243000000     2.616000000    -5.173000000
H     3.175000000     3.013000000    -6.298000000
O     7.260000000     1.400000000    -0.299000000
H     6.761000000     0.587000000    -0.377000000
H     7.175000000     1.817000000    -1.156000000
