144
-2824.04925
O    -2.795000000     3.981000000     1.840000000
H    -3.134000000     3.086000000     1.873000000
H    -1.904000000     3.888000000     1.503000000
O     4.699000000     0.411000000    -3.380000000
H     4.969000000     1.126000000    -2.804000000
H     3.752000000     0.516000000    -3.467000000
O     2.900000000     3.452000000     3.721000000
H     2.585000000     2.595000000     4.009000000
H     2.180000000     4.051000000     3.919000000
O    -5.056000000     0.286000000    -3.931000000
H    -4.422000000     0.574000000    -4.588000000
H    -5.388000000     1.098000000    -3.548000000
O    -0.379000000     4.366000000    -3.455000000
H    -1.215000000     4.280000000    -2.996000000
H    -0.339000000     3.599000000    -4.026000000
O     3.318000000    -1.390000000     3.665000000
H     3.628000000    -1.075000000     2.816000000
H     4.103000000    -1.727000000     4.097000000
O     0.266000000    -2.298000000    -6.052000000
H     0.297000000    -3.250000000    -5.959000000
H     0.265000000    -1.970000000    -5.153000000
O    -3.610000000     1.877000000     5.485000000
H    -3.692000000     1.521000000     6.370000000
H    -2.726000000     1.634000000     5.210000000
O    -0.251000000     3.585000000     3.633000000
H    -0.584000000     2.705000000     3.808000000
H    -0.048000000     3.941000000     4.498000000
O     1.532000000    -4.990000000     3.952000000
H     1.786000000    -4.645000000     3.096000000
H     2.361000000    -5.166000000     4.396000000
O     6.599000000     1.387000000     2.118000000
H     7.120000000     1.604000000     1.344000000
H     5.864000000     1.999000000     2.092000000
O     3.812000000     5.311000000     0.283000000
H     3.036000000     5.682000000     0.703000000
H     4.294000000     6.070000000    -0.044000000
O    -0.477000000     3.481000000    -6.329000000
H    -0.741000000     4.285000000    -6.777000000
H    -1.097000000     2.820000000    -6.638000000
O    -6.868000000    -1.833000000     3.503000000
H    -6.034000000    -1.556000000     3.124000000
H    -7.529000000    -1.356000000     3.002000000
O    -6.067000000    -2.000000000    -0.595000000
H    -6.931000000    -1.644000000    -0.800000000
H    -5.655000000    -2.138000000    -1.448000000
O    -4.798000000    -0.979000000     1.681000000
H    -5.443000000    -1.070000000     0.980000000
H    -4.147000000    -1.657000000     1.497000000
O    -4.040000000     1.603000000    -1.036000000
H    -4.784000000     1.238000000    -1.516000000
H    -4.224000000     1.400000000    -0.119000000
O    -1.833000000    -7.062000000     1.723000000
H    -1.922000000    -6.251000000     2.223000000
H    -0.980000000    -6.987000000     1.295000000
O    -2.600000000     3.682000000    -2.147000000
H    -3.488000000     3.736000000    -2.501000000
H    -2.616000000     2.915000000    -1.575000000
O    -1.622000000    -4.757000000     3.178000000
H    -1.870000000    -3.973000000     2.688000000
H    -0.669000000    -4.798000000     3.098000000
O     0.968000000    -1.890000000     4.992000000
H     0.278000000    -1.643000000     4.375000000
H     1.761000000    -1.938000000     4.458000000
O     5.027000000     2.475000000    -1.338000000
H     4.932000000     2.507000000    -0.386000000
H     4.544000000     3.240000000    -1.652000000
O    -2.968000000    -5.886000000     5.517000000
H    -2.697000000    -5.817000000     4.602000000
H    -2.493000000    -5.184000000     5.961000000
O     1.287000000    -4.597000000     1.218000000
H     1.608000000    -3.729000000     0.972000000
H     0.887000000    -4.939000000     0.418000000
O     0.948000000     5.549000000    -1.414000000
H     0.406000000     5.052000000    -2.027000000
H     0.589000000     5.339000000    -0.552000000
O     0.461000000    -5.800000000     6.444000000
H    -0.215000000    -5.329000000     6.930000000
H     0.590000000    -5.282000000     5.649000000
O     3.421000000     4.392000000    -2.881000000
H     3.274000000     4.942000000    -3.651000000
H     2.926000000     4.820000000    -2.183000000
O    -0.623000000     6.718000000    -4.896000000
H    -0.340000000     5.856000000    -4.592000000
H    -1.130000000     6.538000000    -5.688000000
O    -1.249000000     0.941000000     4.007000000
H    -1.425000000     0.273000000     3.346000000
H    -0.870000000     0.458000000     4.742000000
O    -1.953000000    -4.561000000    -2.235000000
H    -1.159000000    -4.834000000    -1.775000000
H    -2.576000000    -4.356000000    -1.538000000
O    -3.848000000     1.560000000     2.329000000
H    -3.361000000     1.307000000     3.114000000
H    -4.307000000     0.763000000     2.065000000
O    -1.003000000    -1.794000000     6.991000000
H    -1.660000000    -1.355000000     6.451000000
H    -0.212000000    -1.796000000     6.453000000
O     4.658000000     3.193000000     1.786000000
H     4.033000000     3.336000000     2.497000000
H     4.470000000     3.891000000     1.159000000
O     5.321000000    -2.251000000    -4.180000000
H     4.907000000    -2.940000000    -4.700000000
H     5.075000000    -1.438000000    -4.622000000
O     1.404000000    -0.018000000    -7.491000000
H     1.663000000     0.891000000    -7.340000000
H     1.196000000    -0.356000000    -6.619000000
O    -0.444000000     3.234000000     0.703000000
H    -0.400000000     2.284000000     0.597000000
H    -0.223000000     3.384000000     1.622000000
O    -3.696000000    -4.048000000    -0.217000000
H    -4.449000000    -3.790000000    -0.749000000
H    -3.548000000    -3.303000000     0.365000000
O    -4.414000000    -6.822000000     0.168000000
H    -3.827000000    -6.083000000     0.009000000
H    -3.829000000    -7.561000000     0.333000000
O     0.013000000     1.153000000     6.546000000
H    -0.329000000     1.995000000     6.845000000
H     0.243000000     0.688000000     7.351000000
O     2.269000000    -2.224000000     0.069000000
H     1.670000000    -1.547000000     0.385000000
H     3.076000000    -1.753000000    -0.137000000
O     2.268000000     0.929000000     4.458000000
H     2.497000000     0.016000000     4.283000000
H     1.494000000     0.878000000     5.020000000
O     4.811000000    -1.335000000    -1.063000000
H     5.293000000    -2.161000000    -1.105000000
H     5.024000000    -0.891000000    -1.883000000
O    -3.647000000    -2.112000000     4.289000000
H    -2.788000000    -2.358000000     3.947000000
H    -4.048000000    -1.602000000     3.586000000
O     4.307000000    -0.195000000     1.564000000
H     4.855000000     0.488000000     1.949000000
H     4.803000000    -0.499000000     0.804000000
O    -3.515000000    -0.603000000     6.750000000
H    -3.708000000    -1.227000000     7.449000000
H    -4.004000000    -0.931000000     5.995000000
O    -4.626000000    -2.167000000    -2.933000000
H    -4.711000000    -1.298000000    -3.325000000
H    -3.754000000    -2.463000000    -3.195000000
O     0.483000000    -1.805000000    -3.405000000
H    -0.016000000    -1.929000000    -2.598000000
H     1.399000000    -1.878000000    -3.134000000
O     2.363000000     2.762000000    -7.240000000
H     1.799000000     3.010000000    -6.507000000
H     3.233000000     3.071000000    -6.988000000
