144
-2780.83909
O    -0.632000000     6.094000000     0.660000000
H    -0.206000000     5.398000000     1.161000000
H    -0.167000000     6.891000000     0.914000000
O    -5.834000000     2.992000000     3.356000000
H    -5.174000000     2.497000000     2.869000000
H    -6.656000000     2.534000000     3.178000000
O     0.990000000    -3.888000000    -5.461000000
H     0.908000000    -3.565000000    -6.358000000
H     0.608000000    -3.197000000    -4.921000000
O     1.666000000     7.025000000    -1.403000000
H     0.811000000     6.596000000    -1.426000000
H     1.801000000     7.338000000    -2.298000000
O     2.601000000     1.349000000     4.077000000
H     2.883000000     0.713000000     3.420000000
H     1.687000000     1.123000000     4.252000000
O     3.340000000    -1.746000000    -3.575000000
H     3.669000000    -2.258000000    -2.836000000
H     3.452000000    -2.321000000    -4.333000000
O    -5.510000000     1.740000000     5.890000000
H    -4.875000000     1.027000000     5.817000000
H    -5.577000000     2.092000000     5.003000000
O     1.335000000     4.093000000     1.795000000
H     1.225000000     3.430000000     1.113000000
H     2.273000000     4.086000000     1.987000000
O    -0.315000000    -6.260000000     1.337000000
H     0.593000000    -6.247000000     1.640000000
H    -0.764000000    -6.840000000     1.951000000
O     1.825000000    -0.554000000    -5.535000000
H     2.198000000    -1.071000000    -4.821000000
H     2.561000000    -0.038000000    -5.866000000
O    -2.804000000    -4.463000000    -2.356000000
H    -2.090000000    -4.965000000    -2.748000000
H    -2.863000000    -3.671000000    -2.891000000
O    -3.288000000    -0.388000000     5.702000000
H    -3.139000000    -0.354000000     4.757000000
H    -2.569000000     0.120000000     6.076000000
O     0.205000000    -6.059000000    -1.378000000
H    -0.181000000    -5.269000000    -1.756000000
H     0.080000000    -5.959000000    -0.434000000
O    -0.885000000     2.783000000     3.746000000
H    -0.532000000     3.363000000     3.072000000
H    -0.403000000     1.964000000     3.633000000
O    -4.057000000     3.927000000     0.427000000
H    -5.000000000     4.032000000     0.294000000
H    -3.902000000     2.991000000     0.306000000
O    -2.996000000    -3.624000000     4.697000000
H    -2.234000000    -3.303000000     5.179000000
H    -2.789000000    -3.450000000     3.779000000
O     2.195000000     5.536000000    -4.572000000
H     2.768000000     4.815000000    -4.313000000
H     1.373000000     5.366000000    -4.112000000
O     0.415000000    -3.529000000     3.617000000
H    -0.317000000    -3.099000000     3.174000000
H     0.262000000    -3.362000000     4.547000000
O    -0.239000000     0.309000000     4.404000000
H    -1.073000000    -0.090000000     4.156000000
H    -0.397000000     0.668000000     5.278000000
O     4.561000000     4.414000000     0.285000000
H     5.267000000     5.048000000     0.411000000
H     4.569000000     3.885000000     1.082000000
O     6.350000000    -1.007000000    -4.821000000
H     5.894000000    -1.847000000    -4.769000000
H     5.868000000    -0.436000000    -4.222000000
O     2.797000000    -2.591000000     3.213000000
H     2.686000000    -1.768000000     2.737000000
H     1.909000000    -2.940000000     3.296000000
O    -2.532000000     5.288000000    -1.377000000
H    -1.821000000     5.523000000    -0.781000000
H    -3.172000000     4.841000000    -0.823000000
O    -0.802000000    -2.663000000     6.155000000
H    -1.224000000    -2.444000000     6.986000000
H     0.117000000    -2.429000000     6.284000000
O     3.723000000     3.672000000    -2.554000000
H     4.510000000     4.092000000    -2.901000000
H     3.923000000     3.512000000    -1.632000000
O    -0.740000000    -0.249000000    -5.885000000
H    -1.121000000    -1.101000000    -5.673000000
H     0.205000000    -0.396000000    -5.860000000
O    -2.809000000     4.192000000     5.226000000
H    -2.698000000     5.059000000     4.837000000
H    -2.257000000     3.619000000     4.694000000
O    -2.143000000    -4.324000000     0.797000000
H    -1.585000000    -5.075000000     1.000000000
H    -1.869000000    -3.648000000     1.416000000
O    -4.486000000     1.314000000     1.881000000
H    -3.758000000     0.785000000     2.206000000
H    -5.089000000     0.680000000     1.495000000
O     1.830000000     2.780000000    -7.095000000
H     2.746000000     2.552000000    -7.256000000
H     1.819000000     3.737000000    -7.091000000
O     4.995000000     1.182000000    -3.641000000
H     4.435000000     1.830000000    -3.213000000
H     4.571000000     1.017000000    -4.483000000
O    -4.376000000    -2.985000000    -0.661000000
H    -3.587000000    -3.526000000    -0.615000000
H    -4.434000000    -2.572000000     0.200000000
O    -0.007000000    -2.076000000    -3.748000000
H    -0.963000000    -2.120000000    -3.768000000
H     0.199000000    -1.735000000    -2.877000000
O    -0.766000000     2.556000000    -5.364000000
H    -1.047000000     1.657000000    -5.192000000
H     0.035000000     2.462000000    -5.880000000
O     4.317000000    -3.019000000     0.578000000
H     4.834000000    -3.797000000     0.367000000
H     3.755000000    -2.891000000    -0.186000000
O     2.438000000    -5.619000000     1.278000000
H     2.925000000    -4.815000000     1.094000000
H     2.788000000    -6.258000000     0.657000000
O    -5.159000000    -2.255000000     5.722000000
H    -4.729000000    -1.408000000     5.607000000
H    -4.608000000    -2.871000000     5.238000000
O     3.303000000    -4.753000000    -1.917000000
H     2.986000000    -5.619000000    -1.662000000
H     4.256000000    -4.815000000    -1.844000000
O    -4.757000000    -2.261000000     2.252000000
H    -5.338000000    -1.618000000     1.846000000
H    -4.071000000    -1.737000000     2.667000000
O    -5.331000000    -4.841000000     2.821000000
H    -5.341000000    -3.937000000     2.507000000
H    -4.666000000    -4.848000000     3.510000000
O     3.771000000    -0.363000000     1.649000000
H     4.072000000    -1.271000000     1.691000000
H     3.850000000    -0.128000000     0.724000000
O     7.263000000    -1.736000000    -0.631000000
H     6.432000000    -1.262000000    -0.653000000
H     7.537000000    -1.697000000     0.285000000
O    -2.721000000     5.600000000     2.402000000
H    -3.313000000     5.057000000     1.881000000
H    -1.994000000     5.796000000     1.811000000
O     5.090000000     0.088000000    -1.065000000
H     4.776000000     0.144000000    -1.968000000
H     5.770000000     0.760000000    -1.006000000
O    -1.071000000     0.714000000     7.164000000
H    -1.460000000     0.721000000     8.038000000
H    -0.128000000     0.669000000     7.321000000
O    -6.477000000    -0.546000000     1.302000000
H    -7.063000000    -0.811000000     0.593000000
H    -7.030000000    -0.033000000     1.891000000
O     4.109000000     0.929000000    -6.242000000
H     4.630000000     0.219000000    -6.618000000
H     4.580000000     1.726000000    -6.487000000
O    -4.997000000    -5.932000000     0.444000000
H    -5.142000000    -5.843000000     1.386000000
H    -4.177000000    -5.466000000     0.283000000
