144
-2838.84698
O    -4.195000000     5.927000000    -2.580000000
H    -3.358000000     5.913000000    -2.115000000
H    -4.411000000     5.004000000    -2.712000000
O    -0.618000000     0.367000000     6.550000000
H    -1.006000000     1.167000000     6.905000000
H    -0.321000000     0.614000000     5.675000000
O    -3.656000000    -4.790000000    -0.744000000
H    -3.821000000    -4.236000000     0.019000000
H    -3.590000000    -4.176000000    -1.475000000
O    -2.372000000     3.458000000    -5.336000000
H    -1.448000000     3.660000000    -5.486000000
H    -2.361000000     2.766000000    -4.675000000
O     0.750000000    -6.658000000     5.107000000
H     0.611000000    -6.265000000     4.245000000
H     0.337000000    -6.047000000     5.717000000
O    -0.665000000    -4.935000000     0.528000000
H    -1.196000000    -5.689000000     0.272000000
H    -1.268000000    -4.193000000     0.491000000
O    -1.527000000     3.609000000     1.063000000
H    -2.274000000     3.535000000     0.469000000
H    -1.808000000     3.157000000     1.859000000
O    -4.343000000    -1.474000000    -5.045000000
H    -3.594000000    -0.989000000    -5.393000000
H    -3.980000000    -1.990000000    -4.325000000
O     5.108000000     2.702000000    -0.140000000
H     4.787000000     1.888000000     0.248000000
H     4.798000000     3.388000000     0.452000000
O     2.675000000    -4.104000000     6.842000000
H     3.128000000    -4.293000000     6.020000000
H     1.947000000    -3.536000000     6.590000000
O    -0.298000000    -2.927000000    -3.483000000
H     0.523000000    -2.903000000    -2.991000000
H    -0.314000000    -3.798000000    -3.880000000
O    -0.668000000    -5.547000000     3.022000000
H    -0.504000000    -4.819000000     2.423000000
H    -0.709000000    -6.318000000     2.455000000
O     2.824000000     1.980000000    -4.204000000
H     3.554000000     1.945000000    -4.823000000
H     3.106000000     2.605000000    -3.536000000
O    -0.013000000    -0.670000000    -4.786000000
H     0.924000000    -0.592000000    -4.611000000
H    -0.303000000    -1.391000000    -4.228000000
O     5.673000000     0.187000000    -3.172000000
H     5.992000000     0.929000000    -2.659000000
H     6.454000000    -0.339000000    -3.345000000
O    -5.393000000     1.109000000     0.658000000
H    -5.422000000     1.840000000     0.041000000
H    -6.311000000     0.938000000     0.870000000
O    -2.999000000    -2.773000000    -2.878000000
H    -3.228000000    -2.284000000    -2.088000000
H    -2.043000000    -2.812000000    -2.868000000
O    -3.241000000    -5.381000000     4.791000000
H    -3.092000000    -6.088000000     5.420000000
H    -2.462000000    -5.388000000     4.234000000
O     1.339000000     5.164000000    -1.508000000
H     1.388000000     4.465000000    -0.856000000
H     2.192000000     5.147000000    -1.942000000
O     0.818000000    -2.220000000     5.808000000
H     0.122000000    -1.632000000     6.102000000
H     0.837000000    -2.111000000     4.857000000
O     0.049000000     7.475000000    -2.945000000
H     0.236000000     7.694000000    -3.858000000
H     0.572000000     6.692000000    -2.774000000
O    -2.433000000    -2.668000000     5.213000000
H    -2.664000000    -3.597000000     5.178000000
H    -2.014000000    -2.494000000     4.370000000
O     1.763000000    -2.593000000    -1.633000000
H     2.121000000    -2.106000000    -2.375000000
H     2.272000000    -2.291000000    -0.881000000
O    -2.306000000    -0.294000000    -6.342000000
H    -1.479000000    -0.378000000    -5.866000000
H    -2.136000000     0.380000000    -7.000000000
O    -3.755000000     3.294000000    -0.894000000
H    -3.428000000     2.661000000    -1.533000000
H    -4.694000000     3.117000000    -0.840000000
O     2.769000000    -3.978000000     3.103000000
H     2.188000000    -3.244000000     3.304000000
H     2.502000000    -4.262000000     2.229000000
O    -1.953000000     6.355000000    -1.318000000
H    -1.368000000     6.747000000    -1.965000000
H    -1.380000000     6.119000000    -0.588000000
O     1.552000000     1.972000000    -6.792000000
H     0.787000000     2.461000000    -6.490000000
H     1.424000000     1.089000000    -6.445000000
O    -4.438000000     1.143000000     3.622000000
H    -4.926000000     1.357000000     2.827000000
H    -3.522000000     1.131000000     3.346000000
O     0.276000000     3.781000000    -4.313000000
H     0.413000000     4.404000000    -3.599000000
H     0.690000000     2.974000000    -4.009000000
O     1.118000000     3.250000000     0.559000000
H     0.178000000     3.394000000     0.671000000
H     1.289000000     2.424000000     1.011000000
O    -4.722000000    -1.057000000    -1.153000000
H    -5.201000000    -1.879000000    -1.264000000
H    -5.219000000    -0.579000000    -0.489000000
O     3.327000000    -0.311000000     3.435000000
H     3.791000000    -0.421000000     4.265000000
H     2.712000000    -1.044000000     3.405000000
O     3.427000000     4.844000000     1.068000000
H     2.766000000     4.197000000     0.821000000
H     3.121000000     5.190000000     1.907000000
O     0.539000000     0.691000000     4.131000000
H     0.764000000    -0.152000000     3.738000000
H     1.208000000     1.293000000     3.806000000
O     3.776000000     4.055000000    -2.486000000
H     4.166000000     4.885000000    -2.757000000
H     4.424000000     3.666000000    -1.899000000
O     4.425000000    -2.649000000    -0.255000000
H     4.486000000    -3.103000000    -1.096000000
H     4.664000000    -3.312000000     0.393000000
O     2.394000000     2.192000000     2.888000000
H     2.839000000     1.359000000     3.040000000
H     2.829000000     2.808000000     3.478000000
O    -1.670000000     1.492000000     3.056000000
H    -1.029000000     1.056000000     3.617000000
H    -1.512000000     1.130000000     2.185000000
O    -4.247000000    -0.796000000     5.738000000
H    -3.458000000    -1.334000000     5.670000000
H    -4.064000000    -0.032000000     5.191000000
O     1.118000000     4.866000000    -6.850000000
H     0.936000000     4.463000000    -6.000000000
H     2.042000000     5.112000000    -6.805000000
O    -3.619000000     1.474000000    -2.886000000
H    -3.844000000     0.759000000    -2.292000000
H    -4.341000000     1.501000000    -3.513000000
O     5.270000000    -0.201000000     0.661000000
H     4.985000000    -0.843000000     0.011000000
H     4.637000000    -0.284000000     1.374000000
O     4.272000000    -0.481000000     5.777000000
H     4.941000000    -0.710000000     6.421000000
H     3.636000000     0.041000000     6.267000000
O     3.060000000    -0.688000000    -3.202000000
H     3.997000000    -0.501000000    -3.149000000
H     2.646000000     0.174000000    -3.245000000
O    -0.641000000    -4.932000000     6.616000000
H    -0.662000000    -4.130000000     6.093000000
H    -1.275000000    -4.778000000     7.316000000
O    -3.393000000    -3.403000000     1.736000000
H    -4.138000000    -2.941000000     2.119000000
H    -2.633000000    -3.069000000     2.212000000
O     2.110000000    -4.690000000     0.574000000
H     1.189000000    -4.928000000     0.680000000
H     2.141000000    -4.219000000    -0.259000000
