144
-2850.51639
O    -5.570000000    -3.915000000     3.462000000
H    -4.829000000    -4.494000000     3.289000000
H    -5.846000000    -3.613000000     2.597000000
O     3.151000000     2.838000000     2.839000000
H     3.095000000     3.603000000     3.410000000
H     2.697000000     2.146000000     3.320000000
O     4.049000000    -2.445000000    -3.510000000
H     3.816000000    -2.431000000    -4.438000000
H     4.104000000    -3.375000000    -3.291000000
O     7.095000000     3.678000000     1.755000000
H     7.006000000     4.094000000     2.612000000
H     6.375000000     4.039000000     1.238000000
O     5.423000000     1.423000000     2.487000000
H     6.080000000     2.041000000     2.165000000
H     4.677000000     1.971000000     2.730000000
O    -0.324000000    -0.289000000     5.002000000
H    -0.762000000    -1.024000000     4.572000000
H    -0.426000000     0.441000000     4.391000000
O     1.407000000    -5.115000000    -2.625000000
H     1.190000000    -4.282000000    -3.043000000
H     1.549000000    -4.892000000    -1.705000000
O    -5.516000000    -3.015000000     0.626000000
H    -4.637000000    -2.637000000     0.600000000
H    -6.070000000    -2.364000000     0.192000000
O    -4.595000000     0.216000000    -1.381000000
H    -4.269000000    -0.249000000    -0.610000000
H    -4.242000000     1.101000000    -1.294000000
O     4.584000000     0.522000000    -3.648000000
H     3.651000000     0.593000000    -3.849000000
H     4.765000000    -0.417000000    -3.679000000
O    -7.509000000    -0.691000000     1.522000000
H    -6.569000000    -0.512000000     1.507000000
H    -7.846000000    -0.145000000     2.231000000
O     0.417000000    -2.549000000    -3.541000000
H    -0.331000000    -2.181000000    -4.011000000
H     0.775000000    -1.812000000    -3.046000000
O    -0.604000000    -6.025000000    -4.082000000
H    -0.148000000    -6.845000000    -4.270000000
H     0.015000000    -5.523000000    -3.554000000
O     1.444000000    -4.409000000     1.690000000
H     1.773000000    -3.622000000     2.124000000
H     2.000000000    -4.506000000     0.917000000
O     1.305000000     4.502000000     4.518000000
H     1.135000000     3.647000000     4.123000000
H     0.710000000     5.098000000     4.064000000
O     7.175000000     1.403000000    -4.215000000
H     7.399000000     1.056000000    -5.078000000
H     6.225000000     1.300000000    -4.154000000
O    -4.295000000    -1.008000000    -3.698000000
H    -4.407000000    -0.472000000    -2.913000000
H    -3.934000000    -0.406000000    -4.349000000
O     3.112000000    -4.629000000    -0.333000000
H     3.810000000    -5.150000000     0.064000000
H     3.496000000    -3.760000000    -0.445000000
O     2.824000000    -2.305000000     3.107000000
H     3.103000000    -2.510000000     4.000000000
H     3.641000000    -2.161000000     2.628000000
O    -5.210000000     0.603000000     2.680000000
H    -4.418000000     0.224000000     2.300000000
H    -5.474000000     1.281000000     2.058000000
O    -3.195000000     3.140000000     3.362000000
H    -2.497000000     3.030000000     4.007000000
H    -3.785000000     2.403000000     3.520000000
O     5.438000000     2.052000000    -1.585000000
H     4.937000000     1.631000000    -2.283000000
H     6.259000000     2.313000000    -2.003000000
O     4.991000000     4.279000000     0.126000000
H     4.992000000     3.394000000    -0.237000000
H     4.294000000     4.732000000    -0.348000000
O    -4.774000000    -5.737000000     0.552000000
H    -5.674000000    -5.915000000     0.825000000
H    -4.728000000    -4.783000000     0.483000000
O    -5.763000000     2.586000000     0.884000000
H    -4.873000000     2.472000000     0.549000000
H    -6.324000000     2.466000000     0.118000000
O    -2.194000000    -2.282000000     3.589000000
H    -2.251000000    -2.530000000     2.666000000
H    -2.537000000    -3.039000000     4.062000000
O     5.159000000    -1.341000000     2.176000000
H     5.317000000    -0.397000000     2.196000000
H     5.307000000    -1.589000000     1.263000000
O    -3.288000000    -3.207000000    -1.925000000
H    -2.628000000    -3.021000000    -1.257000000
H    -3.579000000    -2.344000000    -2.222000000
O    -0.257000000     1.027000000    -3.141000000
H    -0.644000000     0.482000000    -2.456000000
H     0.189000000     1.728000000    -2.666000000
O     1.894000000     0.455000000    -4.701000000
H     1.671000000     0.349000000    -5.626000000
H     1.071000000     0.299000000    -4.237000000
O     3.473000000     6.737000000    -1.135000000
H     4.151000000     6.555000000    -1.786000000
H     3.908000000     7.289000000    -0.485000000
O    -1.112000000    -5.038000000     1.066000000
H    -1.689000000    -4.291000000     0.907000000
H    -0.301000000    -4.649000000     1.391000000
O     0.354000000     1.866000000     3.204000000
H     0.521000000     2.081000000     2.286000000
H     1.113000000     1.347000000     3.470000000
O     1.754000000     3.317000000    -4.080000000
H     1.661000000     2.367000000    -4.158000000
H     2.528000000     3.525000000    -4.602000000
O    -3.301000000     0.092000000     4.562000000
H    -2.828000000    -0.625000000     4.139000000
H    -4.206000000    -0.013000000     4.270000000
O    -3.313000000    -5.273000000     3.244000000
H    -2.780000000    -5.481000000     2.477000000
H    -2.859000000    -5.697000000     3.973000000
O    -3.653000000     2.696000000    -1.239000000
H    -3.011000000     3.206000000    -0.746000000
H    -4.233000000     3.351000000    -1.627000000
O     4.069000000    -5.010000000    -3.074000000
H     4.530000000    -5.830000000    -2.892000000
H     3.388000000    -4.964000000    -2.403000000
O    -3.357000000    -5.258000000    -3.802000000
H    -2.521000000    -5.625000000    -4.090000000
H    -3.173000000    -4.894000000    -2.936000000
O     1.090000000     5.949000000     0.253000000
H     0.680000000     5.239000000    -0.241000000
H     1.743000000     6.312000000    -0.346000000
O     0.237000000     4.736000000    -2.224000000
H     0.936000000     4.517000000    -2.841000000
H    -0.559000000     4.739000000    -2.755000000
O     3.423000000     6.061000000     1.979000000
H     2.828000000     5.801000000     1.276000000
H     3.442000000     5.306000000     2.568000000
O     6.701000000    -0.186000000    -0.313000000
H     7.225000000     0.309000000     0.316000000
H     6.308000000     0.482000000    -0.875000000
O     0.221000000    -7.169000000     2.525000000
H     0.759000000    -6.410000000     2.301000000
H    -0.672000000    -6.901000000     2.309000000
O     4.791000000    -1.973000000    -0.666000000
H     5.533000000    -1.381000000    -0.543000000
H     4.335000000    -1.628000000    -1.434000000
O    -2.647000000    -7.113000000    -0.541000000
H    -3.320000000    -6.470000000    -0.317000000
H    -1.825000000    -6.701000000    -0.274000000
O     2.423000000     0.383000000     4.008000000
H     3.149000000     0.124000000     3.440000000
H     1.884000000    -0.404000000     4.082000000
O    -2.095000000     4.116000000     0.832000000
H    -2.403000000     3.655000000     1.612000000
H    -1.626000000     4.878000000     1.173000000
