144
-2810.18206
O    -1.535000000    -3.944000000     5.834000000
H    -1.579000000    -4.811000000     5.431000000
H    -2.085000000    -4.015000000     6.615000000
O    -0.086000000    -6.392000000    -1.116000000
H    -0.649000000    -5.679000000    -1.417000000
H     0.483000000    -6.579000000    -1.863000000
O    -4.699000000    -1.721000000     0.773000000
H    -4.397000000    -1.762000000     1.680000000
H    -5.628000000    -1.946000000     0.819000000
O     1.402000000    -1.028000000     6.695000000
H     0.922000000    -1.425000000     5.969000000
H     2.307000000    -0.978000000     6.385000000
O    -3.508000000    -4.579000000     3.442000000
H    -2.877000000    -4.468000000     2.731000000
H    -2.976000000    -4.826000000     4.198000000
O    -4.921000000     1.993000000     4.950000000
H    -4.044000000     1.733000000     5.233000000
H    -5.355000000     2.283000000     5.752000000
O    -3.993000000    -0.272000000    -3.731000000
H    -4.400000000     0.052000000    -4.535000000
H    -4.004000000     0.479000000    -3.138000000
O     4.017000000     2.617000000    -1.019000000
H     3.257000000     3.149000000    -0.782000000
H     3.927000000     1.823000000    -0.493000000
O    -1.341000000    -4.400000000     1.996000000
H    -0.730000000    -4.062000000     1.342000000
H    -0.804000000    -4.543000000     2.775000000
O     3.354000000     3.140000000    -4.667000000
H     2.737000000     3.412000000    -3.987000000
H     2.806000000     2.732000000    -5.338000000
O     5.451000000     1.473000000     4.183000000
H     4.715000000     0.882000000     4.021000000
H     5.983000000     1.416000000     3.390000000
O     3.468000000     0.742000000    -3.401000000
H     2.672000000     0.393000000    -3.802000000
H     3.517000000     1.645000000    -3.715000000
O     2.578000000    -2.572000000     2.705000000
H     2.008000000    -2.886000000     2.004000000
H     3.451000000    -2.880000000     2.461000000
O     6.149000000     1.894000000    -2.643000000
H     5.388000000     2.319000000    -2.246000000
H     5.851000000     1.006000000    -2.841000000
O    -3.237000000     1.090000000     0.685000000
H    -2.478000000     0.753000000     0.209000000
H    -3.663000000     0.311000000     1.041000000
O    -2.445000000     2.354000000    -6.005000000
H    -1.590000000     2.575000000    -6.374000000
H    -2.470000000     2.814000000    -5.165000000
O    -2.848000000     3.670000000     1.845000000
H    -1.990000000     3.650000000     2.269000000
H    -3.041000000     2.753000000     1.653000000
O    -1.822000000     0.839000000     5.998000000
H    -1.620000000     0.417000000     5.163000000
H    -0.967000000     1.065000000     6.365000000
O     0.169000000    -2.315000000     4.709000000
H    -0.472000000    -2.769000000     5.255000000
H    -0.357000000    -1.754000000     4.139000000
O    -3.330000000    -1.183000000     3.451000000
H    -2.429000000    -0.867000000     3.506000000
H    -3.368000000    -1.909000000     4.075000000
O     5.014000000    -1.412000000    -3.419000000
H     4.472000000    -2.200000000    -3.376000000
H     4.422000000    -0.700000000    -3.176000000
O     2.042000000    -4.247000000     5.039000000
H     1.535000000    -3.549000000     4.623000000
H     2.820000000    -3.807000000     5.380000000
O     1.456000000    -2.462000000    -5.471000000
H     1.491000000    -2.498000000    -4.515000000
H     0.529000000    -2.338000000    -5.672000000
O     2.295000000    -1.852000000    -0.381000000
H     2.227000000    -2.116000000    -1.299000000
H     1.970000000    -0.952000000    -0.366000000
O    -0.914000000    -1.236000000    -6.288000000
H    -1.571000000    -1.664000000    -6.838000000
H    -0.159000000    -1.117000000    -6.865000000
O    -3.852000000    -1.054000000     6.770000000
H    -3.159000000    -0.411000000     6.618000000
H    -4.429000000    -0.638000000     7.411000000
O     1.862000000     1.445000000    -6.045000000
H     1.998000000     0.792000000    -6.731000000
H     0.923000000     1.630000000    -6.073000000
O    -1.422000000     3.742000000    -2.094000000
H    -1.089000000     4.115000000    -1.279000000
H    -1.876000000     2.944000000    -1.824000000
O     0.665000000     1.822000000     6.759000000
H     0.645000000     1.641000000     5.819000000
H     1.579000000     1.686000000     7.009000000
O     1.516000000     3.771000000    -2.949000000
H     1.885000000     3.994000000    -2.095000000
H     0.568000000     3.818000000    -2.821000000
O     1.888000000     4.274000000    -0.212000000
H     0.979000000     4.491000000    -0.005000000
H     2.367000000     4.455000000     0.596000000
O     1.763000000     3.275000000     4.260000000
H     2.560000000     3.334000000     4.787000000
H     1.684000000     2.345000000     4.050000000
O    -0.691000000     5.569000000    -0.305000000
H    -1.462000000     5.870000000     0.175000000
H    -0.262000000     6.372000000    -0.599000000
O    -5.467000000     0.447000000     2.947000000
H    -5.203000000     1.083000000     3.613000000
H    -4.806000000    -0.244000000     3.002000000
O     3.023000000     4.312000000     2.150000000
H     2.545000000     3.928000000     2.885000000
H     3.922000000     4.005000000     2.262000000
O     1.105000000    -3.889000000     0.813000000
H     1.851000000    -4.410000000     0.515000000
H     1.240000000    -3.029000000     0.415000000
O    -2.957000000    -2.518000000    -4.948000000
H    -2.194000000    -2.026000000    -5.251000000
H    -3.463000000    -1.885000000    -4.439000000
O     3.205000000    -0.084000000     3.315000000
H     2.956000000    -1.001000000     3.201000000
H     2.380000000     0.366000000     3.499000000
O     1.883000000    -3.450000000    -2.873000000
H     0.953000000    -3.514000000    -2.656000000
H     2.253000000    -4.287000000    -2.594000000
O    -4.085000000     2.084000000    -1.958000000
H    -4.680000000     2.820000000    -2.101000000
H    -4.009000000     2.019000000    -1.006000000
O    -0.292000000     3.785000000     2.437000000
H     0.397000000     3.573000000     3.067000000
H    -0.043000000     4.642000000     2.090000000
O     0.220000000     5.415000000     4.784000000
H     0.813000000     4.666000000     4.838000000
H     0.715000000     6.079000000     4.304000000
O    -3.586000000    -2.379000000    -1.875000000
H    -3.983000000    -2.047000000    -1.069000000
H    -3.560000000    -1.621000000    -2.459000000
O     3.661000000     0.244000000     0.806000000
H     3.477000000    -0.663000000     0.561000000
H     3.569000000     0.258000000     1.759000000
O    -4.080000000    -5.274000000    -2.882000000
H    -4.353000000    -5.297000000    -1.965000000
H    -3.949000000    -4.344000000    -3.069000000
O     4.512000000    -3.302000000    -5.388000000
H     4.594000000    -4.051000000    -5.979000000
H     3.733000000    -2.839000000    -5.696000000
O    -1.013000000    -4.041000000    -3.040000000
H    -1.328000000    -4.530000000    -3.800000000
H    -1.639000000    -3.324000000    -2.940000000
O    -1.926000000    -6.817000000     0.726000000
H    -2.029000000    -5.989000000     1.195000000
H    -1.265000000    -6.634000000     0.058000000
