144
-2849.11023
O    -1.543000000     3.401000000    -5.004000000
H    -1.062000000     4.163000000    -5.325000000
H    -2.014000000     3.075000000    -5.770000000
O    -0.975000000    -4.736000000     0.314000000
H    -1.683000000    -4.577000000    -0.310000000
H    -0.671000000    -5.620000000     0.111000000
O    -1.799000000    -0.779000000     6.584000000
H    -1.880000000     0.174000000     6.591000000
H    -0.944000000    -0.945000000     6.188000000
O    -3.676000000    -4.949000000    -0.447000000
H    -3.594000000    -5.130000000     0.489000000
H    -4.031000000    -4.061000000    -0.490000000
O     1.063000000    -0.968000000     6.020000000
H     0.886000000    -0.616000000     5.148000000
H     1.669000000    -1.693000000     5.867000000
O    -6.823000000    -2.810000000     2.436000000
H    -6.110000000    -2.219000000     2.196000000
H    -6.386000000    -3.565000000     2.831000000
O     1.307000000     1.345000000     7.666000000
H     1.140000000     0.575000000     7.122000000
H     1.727000000     1.970000000     7.074000000
O    -3.490000000    -0.038000000     3.773000000
H    -3.901000000    -0.300000000     4.597000000
H    -2.569000000    -0.277000000     3.878000000
O    -5.168000000     2.001000000     0.310000000
H    -4.344000000     2.134000000     0.779000000
H    -5.037000000     2.436000000    -0.533000000
O     4.913000000     0.125000000    -3.412000000
H     5.011000000    -0.822000000    -3.509000000
H     4.754000000     0.442000000    -4.301000000
O     3.978000000     0.634000000    -5.878000000
H     3.961000000     1.425000000    -6.418000000
H     3.074000000     0.527000000    -5.582000000
O    -6.142000000    -0.358000000    -2.007000000
H    -6.268000000     0.407000000    -1.445000000
H    -6.233000000    -0.018000000    -2.897000000
O     3.355000000    -2.974000000    -4.185000000
H     3.923000000    -3.336000000    -4.865000000
H     2.862000000    -2.283000000    -4.628000000
O    -5.256000000    -0.675000000     1.613000000
H    -4.683000000    -0.483000000     2.356000000
H    -5.311000000     0.152000000     1.134000000
O    -3.141000000     2.213000000     1.981000000
H    -3.494000000     2.864000000     2.586000000
H    -3.140000000     1.397000000     2.481000000
O     2.817000000    -2.517000000     4.725000000
H     3.464000000    -1.825000000     4.862000000
H     3.153000000    -3.016000000     3.981000000
O    -2.722000000    -4.359000000     5.701000000
H    -2.788000000    -4.250000000     6.650000000
H    -1.790000000    -4.250000000     5.511000000
O    -0.970000000    -3.476000000     3.114000000
H    -1.309000000    -3.554000000     2.222000000
H    -0.995000000    -2.537000000     3.298000000
O     2.969000000     3.196000000    -4.886000000
H     3.741000000     3.069000000    -4.335000000
H     2.601000000     4.030000000    -4.593000000
O     0.810000000    -2.703000000     0.127000000
H     0.196000000    -2.030000000    -0.168000000
H     0.260000000    -3.466000000     0.308000000
O     0.983000000     4.567000000    -1.203000000
H     0.372000000     4.178000000    -0.578000000
H     1.631000000     5.014000000    -0.658000000
O    -1.309000000     2.011000000     6.424000000
H    -0.443000000     2.417000000     6.403000000
H    -1.802000000     2.464000000     5.740000000
O    -4.487000000    -0.589000000     6.357000000
H    -3.577000000    -0.738000000     6.612000000
H    -4.948000000    -0.448000000     7.185000000
O     1.217000000    -3.493000000    -2.850000000
H     1.304000000    -3.247000000    -1.929000000
H     1.663000000    -2.794000000    -3.328000000
O     4.866000000    -0.274000000     5.817000000
H     5.409000000    -0.945000000     5.405000000
H     5.151000000    -0.262000000     6.731000000
O    -1.138000000    -2.369000000    -6.060000000
H    -1.676000000    -2.849000000    -5.429000000
H    -0.607000000    -3.043000000    -6.484000000
O     6.521000000     0.789000000    -1.262000000
H     5.864000000     0.479000000    -1.885000000
H     6.149000000     0.589000000    -0.403000000
O    -4.435000000    -2.399000000    -0.430000000
H    -4.838000000    -2.023000000     0.353000000
H    -4.798000000    -1.890000000    -1.155000000
O    -0.814000000     0.299000000    -5.708000000
H    -1.013000000    -0.627000000    -5.846000000
H    -1.500000000     0.606000000    -5.116000000
O     0.830000000     2.258000000    -6.677000000
H     0.192000000     1.681000000    -6.256000000
H     1.369000000     2.585000000    -5.957000000
O     2.109000000     2.814000000     5.308000000
H     2.026000000     2.064000000     4.719000000
H     2.920000000     3.244000000     5.036000000
O     0.584000000     4.530000000     2.846000000
H     1.307000000     3.911000000     2.745000000
H    -0.039000000     4.285000000     2.162000000
O    -0.588000000     3.145000000     0.770000000
H    -0.385000000     2.210000000     0.794000000
H    -1.542000000     3.185000000     0.845000000
O     4.804000000     3.322000000    -3.028000000
H     4.974000000     3.860000000    -2.255000000
H     5.061000000     2.438000000    -2.765000000
O     4.692000000     0.551000000     0.935000000
H     4.858000000     1.491000000     0.861000000
H     4.395000000     0.431000000     1.837000000
O     1.855000000    -1.460000000    -5.601000000
H     1.100000000    -0.871000000    -5.584000000
H     1.814000000    -1.876000000    -6.462000000
O    -3.139000000    -1.879000000    -3.714000000
H    -2.999000000    -1.083000000    -3.201000000
H    -3.940000000    -1.707000000    -4.209000000
O     2.845000000     3.147000000     2.134000000
H     3.320000000     3.958000000     1.952000000
H     3.525000000     2.521000000     2.382000000
O     4.766000000     3.670000000     4.471000000
H     5.247000000     4.430000000     4.145000000
H     4.901000000     2.997000000     3.803000000
O     3.758000000     0.819000000     3.599000000
H     4.295000000     0.445000000     4.298000000
H     2.860000000     0.599000000     3.844000000
O    -0.077000000    -5.702000000    -3.816000000
H    -0.970000000    -5.413000000    -3.628000000
H     0.470000000    -4.947000000    -3.601000000
O    -4.471000000     3.237000000    -1.876000000
H    -3.515000000     3.269000000    -1.927000000
H    -4.755000000     4.106000000    -2.158000000
O    -1.960000000     3.234000000    -2.413000000
H    -1.701000000     3.423000000    -3.316000000
H    -1.136000000     3.220000000    -1.927000000
O    -3.305000000     0.893000000    -3.986000000
H    -3.018000000     1.635000000    -4.518000000
H    -3.595000000     1.285000000    -3.163000000
O    -2.383000000    -4.383000000    -3.317000000
H    -3.012000000    -4.585000000    -2.624000000
H    -2.662000000    -3.532000000    -3.653000000
O     3.446000000    -1.963000000     0.174000000
H     2.490000000    -1.939000000     0.219000000
H     3.714000000    -1.051000000     0.293000000
O     0.996000000    -3.496000000     7.210000000
H     0.784000000    -4.028000000     6.443000000
H     0.740000000    -2.607000000     6.963000000
O     0.009000000    -4.985000000     5.138000000
H    -0.067000000    -4.620000000     4.257000000
H     0.574000000    -5.751000000     5.032000000
