144
-2834.74977
O    -4.823000000    -0.963000000     4.539000000
H    -3.952000000    -1.360000000     4.536000000
H    -4.986000000    -0.739000000     3.623000000
O    -3.182000000     3.181000000    -3.946000000
H    -2.480000000     3.322000000    -4.582000000
H    -2.807000000     2.576000000    -3.306000000
O     5.894000000     5.477000000     0.615000000
H     6.548000000     5.229000000    -0.039000000
H     5.548000000     4.644000000     0.936000000
O     7.124000000     0.945000000     1.717000000
H     7.332000000     1.644000000     2.337000000
H     6.534000000     1.355000000     1.084000000
O    -0.013000000     0.269000000     4.621000000
H    -0.349000000    -0.182000000     3.846000000
H     0.873000000     0.535000000     4.377000000
O     1.374000000    -4.291000000    -1.733000000
H     0.451000000    -4.538000000    -1.672000000
H     1.645000000    -4.149000000    -0.826000000
O    -6.780000000    -2.735000000     1.335000000
H    -5.924000000    -3.144000000     1.464000000
H    -6.832000000    -2.582000000     0.392000000
O    -4.004000000    -0.387000000    -1.752000000
H    -3.882000000    -0.606000000    -0.828000000
H    -4.354000000     0.504000000    -1.742000000
O     2.965000000    -2.397000000    -2.853000000
H     2.359000000    -2.043000000    -3.504000000
H     2.657000000    -3.290000000    -2.700000000
O    -1.167000000    -3.054000000    -4.033000000
H    -1.465000000    -2.253000000    -3.602000000
H    -1.291000000    -3.740000000    -3.378000000
O     2.331000000    -3.828000000     3.611000000
H     2.420000000    -2.876000000     3.581000000
H     2.462000000    -4.110000000     2.705000000
O     2.709000000     4.827000000    -4.878000000
H     3.553000000     4.661000000    -5.300000000
H     2.731000000     5.758000000    -4.658000000
O     2.882000000    -4.398000000     0.737000000
H     3.209000000    -5.297000000     0.774000000
H     3.619000000    -3.889000000     0.400000000
O     2.850000000    -1.258000000     2.935000000
H     3.555000000    -1.298000000     2.289000000
H     2.902000000    -0.371000000     3.292000000
O    -4.493000000     1.070000000     2.226000000
H    -4.044000000     0.320000000     1.835000000
H    -5.131000000     1.338000000     1.565000000
O     4.380000000     2.856000000    -2.654000000
H     3.520000000     2.825000000    -2.235000000
H     4.317000000     2.232000000    -3.377000000
O    -5.793000000    -2.496000000    -1.961000000
H    -6.559000000    -2.147000000    -2.415000000
H    -5.192000000    -1.754000000    -1.900000000
O     5.479000000     2.200000000    -0.097000000
H     5.464000000     2.312000000    -1.047000000
H     4.559000000     2.245000000     0.165000000
O    -4.209000000    -4.008000000     1.588000000
H    -3.716000000    -4.759000000     1.917000000
H    -3.608000000    -3.268000000     1.680000000
O    -6.546000000     2.322000000     0.619000000
H    -6.817000000     3.041000000     1.190000000
H    -7.363000000     1.887000000     0.378000000
O    -2.690000000    -2.534000000     4.486000000
H    -2.741000000    -2.704000000     3.546000000
H    -1.784000000    -2.737000000     4.717000000
O     4.877000000    -1.332000000     1.042000000
H     5.409000000    -0.716000000     1.546000000
H     5.143000000    -1.192000000     0.134000000
O    -3.715000000    -4.145000000    -1.096000000
H    -4.449000000    -3.689000000    -1.508000000
H    -3.901000000    -4.100000000    -0.158000000
O    -1.336000000    -0.386000000    -3.222000000
H    -2.187000000    -0.332000000    -2.787000000
H    -0.710000000    -0.516000000    -2.509000000
O    -0.488000000     2.076000000    -4.505000000
H     0.264000000     1.904000000    -5.072000000
H    -0.604000000     1.265000000    -4.010000000
O    -0.599000000    -4.776000000     0.806000000
H    -1.076000000    -4.014000000     1.134000000
H     0.224000000    -4.772000000     1.296000000
O    -1.456000000     3.172000000     1.834000000
H    -1.973000000     2.918000000     2.599000000
H    -0.911000000     2.407000000     1.650000000
O     0.911000000     3.939000000    -2.902000000
H     0.406000000     3.372000000    -3.484000000
H     1.382000000     4.528000000    -3.491000000
O    -4.659000000     2.720000000     4.179000000
H    -4.522000000     1.923000000     3.667000000
H    -5.605000000     2.755000000     4.321000000
O    -0.393000000    -3.671000000     4.928000000
H     0.471000000    -3.958000000     4.635000000
H    -0.964000000    -4.421000000     4.762000000
O    -5.710000000     1.770000000    -2.116000000
H    -6.144000000     2.299000000    -2.786000000
H    -6.021000000     2.133000000    -1.286000000
O     4.287000000     2.070000000    -5.395000000
H     4.817000000     1.395000000    -5.819000000
H     4.711000000     2.893000000    -5.635000000
O    -1.397000000    -5.009000000    -2.103000000
H    -1.682000000    -5.755000000    -2.629000000
H    -2.210000000    -4.618000000    -1.781000000
O     2.494000000     4.794000000     0.191000000
H     1.794000000     4.590000000    -0.428000000
H     2.640000000     5.734000000     0.087000000
O    -1.231000000    -1.110000000     6.907000000
H    -1.107000000    -0.221000000     6.574000000
H    -1.895000000    -1.491000000     6.333000000
O    -0.057000000     5.336000000    -0.777000000
H     0.196000000     4.813000000    -1.538000000
H    -0.897000000     5.724000000    -1.022000000
O     2.668000000     3.391000000     2.388000000
H     2.600000000     3.682000000     1.478000000
H     3.572000000     3.585000000     2.634000000
O    -1.122000000    -6.305000000     4.310000000
H    -0.301000000    -6.779000000     4.440000000
H    -1.625000000    -6.472000000     5.107000000
O     5.114000000    -0.825000000    -1.529000000
H     4.610000000    -1.457000000    -2.041000000
H     5.297000000    -0.112000000    -2.141000000
O     5.851000000     4.862000000    -3.368000000
H     5.157000000     4.220000000    -3.220000000
H     6.473000000     4.711000000    -2.656000000
O    -5.713000000    -3.941000000     4.342000000
H    -5.197000000    -3.992000000     3.538000000
H    -6.340000000    -3.236000000     4.180000000
O     4.754000000    -3.683000000    -1.305000000
H     4.030000000    -3.216000000    -1.722000000
H     4.937000000    -4.416000000    -1.893000000
O    -2.811000000    -6.317000000     2.367000000
H    -2.197000000    -6.768000000     1.788000000
H    -2.274000000    -6.022000000     3.103000000
O    -1.380000000    -7.334000000    -0.179000000
H    -1.158000000    -7.145000000    -1.091000000
H    -1.267000000    -6.497000000     0.272000000
O     1.670000000     1.019000000    -5.496000000
H     2.130000000     0.180000000    -5.540000000
H     2.353000000     1.655000000    -5.284000000
O     2.936000000     1.378000000     4.073000000
H     3.442000000     1.734000000     4.803000000
H     2.957000000     2.068000000     3.409000000
O    -2.751000000     5.554000000    -2.322000000
H    -3.600000000     5.491000000    -1.884000000
H    -2.910000000     5.217000000    -3.203000000
O    -3.868000000     4.052000000     0.976000000
H    -3.149000000     3.461000000     0.753000000
H    -4.213000000     3.710000000     1.801000000
