144
-2795.08452
O     5.932000000     0.278000000     1.130000000
H     5.205000000     0.895000000     1.053000000
H     5.907000000    -0.010000000     2.043000000
O    -0.571000000    -1.561000000     4.833000000
H    -0.767000000    -0.708000000     4.446000000
H     0.030000000    -1.973000000     4.212000000
O     2.795000000     3.563000000     3.709000000
H     2.855000000     3.793000000     2.782000000
H     2.018000000     3.006000000     3.768000000
O     2.663000000     0.128000000     4.099000000
H     2.269000000    -0.626000000     3.660000000
H     2.004000000     0.819000000     4.027000000
O     3.343000000     4.892000000     0.761000000
H     2.901000000     4.732000000    -0.072000000
H     3.973000000     5.587000000     0.569000000
O    -3.624000000     0.925000000     4.395000000
H    -3.993000000     1.314000000     3.603000000
H    -2.799000000     0.533000000     4.107000000
O    -5.172000000     1.814000000     0.355000000
H    -5.514000000     0.985000000     0.691000000
H    -4.224000000     1.686000000     0.321000000
O     0.553000000     2.078000000     5.805000000
H    -0.021000000     2.797000000     6.066000000
H     0.398000000     1.976000000     4.866000000
O    -2.675000000    -6.053000000    -1.551000000
H    -2.329000000    -6.666000000    -0.902000000
H    -3.425000000    -6.509000000    -1.935000000
O    -4.103000000     0.464000000    -2.266000000
H    -4.596000000     1.106000000    -2.777000000
H    -3.535000000     0.991000000    -1.703000000
O     0.186000000     3.636000000    -2.567000000
H     0.630000000     2.878000000    -2.947000000
H     0.060000000     4.234000000    -3.304000000
O    -6.238000000    -1.181000000    -3.524000000
H    -6.718000000    -0.659000000    -2.882000000
H    -5.322000000    -0.933000000    -3.399000000
O     0.350000000     5.571000000     4.739000000
H     1.111000000     5.823000000     5.262000000
H    -0.331000000     5.382000000     5.384000000
O     1.216000000    -1.946000000    -7.118000000
H     0.836000000    -2.547000000    -6.478000000
H     0.461000000    -1.515000000    -7.519000000
O     2.263000000    -5.905000000    -3.113000000
H     1.667000000    -5.210000000    -2.836000000
H     2.281000000    -5.838000000    -4.068000000
O    -4.779000000    -3.234000000     4.350000000
H    -5.431000000    -2.580000000     4.100000000
H    -4.173000000    -2.762000000     4.921000000
O    -2.333000000     2.271000000    -1.055000000
H    -1.449000000     2.107000000    -0.727000000
H    -2.414000000     3.225000000    -1.062000000
O    -4.642000000    -3.968000000    -5.219000000
H    -4.301000000    -3.103000000    -4.993000000
H    -5.592000000    -3.879000000    -5.139000000
O     1.001000000    -0.101000000     7.563000000
H     0.379000000    -0.771000000     7.281000000
H     0.864000000     0.625000000     6.954000000
O    -1.052000000    -4.121000000    -5.402000000
H    -1.471000000    -4.600000000    -6.118000000
H    -1.617000000    -3.362000000    -5.259000000
O     1.221000000    -2.579000000     3.184000000
H     1.236000000    -2.900000000     2.282000000
H     1.757000000    -3.206000000     3.670000000
O    -2.299000000     4.641000000     0.900000000
H    -1.410000000     4.336000000     1.084000000
H    -2.320000000     5.536000000     1.238000000
O     0.863000000     6.913000000     0.298000000
H    -0.055000000     7.183000000     0.314000000
H     0.835000000     5.960000000     0.380000000
O    -4.116000000    -4.504000000     0.841000000
H    -4.201000000    -5.198000000     0.187000000
H    -3.308000000    -4.715000000     1.310000000
O     5.304000000    -1.129000000    -4.310000000
H     5.498000000    -0.586000000    -5.074000000
H     4.435000000    -0.846000000    -4.028000000
O    -2.873000000    -2.229000000    -4.248000000
H    -3.088000000    -1.322000000    -4.033000000
H    -2.911000000    -2.689000000    -3.410000000
O     2.629000000     0.645000000    -7.454000000
H     2.389000000    -0.249000000    -7.208000000
H     2.239000000     0.768000000    -8.320000000
O     4.519000000     0.698000000    -1.647000000
H     4.226000000     1.312000000    -0.973000000
H     5.170000000     1.188000000    -2.150000000
O     2.352000000     4.004000000    -5.615000000
H     2.409000000     3.073000000    -5.398000000
H     3.055000000     4.146000000    -6.248000000
O    -2.483000000     3.532000000    -5.724000000
H    -2.371000000     2.635000000    -5.407000000
H    -1.684000000     3.983000000    -5.451000000
O     0.994000000     1.564000000    -4.722000000
H     0.160000000     1.808000000    -5.125000000
H     1.399000000     0.967000000    -5.352000000
O     0.060000000     4.616000000     2.330000000
H     0.308000000     3.698000000     2.438000000
H     0.045000000     4.967000000     3.221000000
O     3.041000000     5.503000000     5.790000000
H     3.067000000     4.878000000     5.066000000
H     3.523000000     6.264000000     5.468000000
O    -5.347000000     3.112000000     5.269000000
H    -5.995000000     2.658000000     4.730000000
H    -4.687000000     2.445000000     5.463000000
O     2.448000000     4.490000000    -1.807000000
H     1.596000000     4.096000000    -1.992000000
H     2.800000000     4.716000000    -2.668000000
O     6.250000000    -1.607000000    -0.792000000
H     6.348000000    -0.926000000    -0.126000000
H     5.716000000    -1.199000000    -1.474000000
O     1.439000000    -5.235000000    -5.829000000
H     1.366000000    -6.145000000    -6.118000000
H     0.536000000    -4.962000000    -5.665000000
O     4.052000000     2.044000000     1.208000000
H     4.042000000     2.107000000     2.163000000
H     3.735000000     2.897000000     0.909000000
O     5.385000000     0.686000000     4.114000000
H     5.928000000     0.125000000     4.667000000
H     4.492000000     0.373000000     4.260000000
O    -1.334000000     4.164000000     6.930000000
H    -2.055000000     3.544000000     7.038000000
H    -1.592000000     4.924000000     7.452000000
O    -3.918000000    -0.988000000     6.424000000
H    -3.134000000    -1.534000000     6.366000000
H    -3.716000000    -0.221000000     5.889000000
O    -3.486000000    -3.258000000    -1.849000000
H    -3.632000000    -3.298000000    -0.904000000
H    -3.272000000    -4.158000000    -2.096000000
O    -2.032000000     0.715000000    -5.611000000
H    -2.255000000     0.165000000    -4.861000000
H    -2.448000000     0.284000000    -6.357000000
O    -2.256000000    -3.430000000     6.001000000
H    -1.740000000    -4.236000000     6.006000000
H    -1.745000000    -2.821000000     5.469000000
O    -0.405000000    -4.902000000    -2.505000000
H    -1.191000000    -5.234000000    -2.070000000
H    -0.710000000    -4.623000000    -3.368000000
O     2.922000000    -1.619000000     0.316000000
H     3.492000000    -0.862000000     0.451000000
H     2.061000000    -1.241000000     0.135000000
O     3.568000000    -1.000000000     6.345000000
H     2.689000000    -0.767000000     6.643000000
H     3.559000000    -0.817000000     5.405000000
O     2.452000000     2.935000000     7.585000000
H     2.215000000     3.441000000     6.808000000
H     2.288000000     2.025000000     7.337000000
