144
-2811.08905
O    -6.498000000    -1.048000000     1.779000000
H    -5.650000000    -1.359000000     1.464000000
H    -6.433000000    -0.094000000     1.742000000
O    -3.611000000     1.893000000    -3.772000000
H    -2.902000000     1.800000000    -4.408000000
H    -3.526000000     1.127000000    -3.205000000
O     3.948000000     2.929000000     2.711000000
H     4.350000000     2.115000000     2.408000000
H     4.461000000     3.620000000     2.290000000
O    -3.232000000    -0.724000000    -5.184000000
H    -3.115000000    -1.309000000    -4.435000000
H    -2.390000000    -0.745000000    -5.638000000
O    -3.503000000     0.068000000     3.997000000
H    -3.896000000    -0.804000000     4.038000000
H    -3.912000000     0.479000000     3.235000000
O     0.394000000     1.835000000     3.866000000
H     0.395000000     1.956000000     2.917000000
H     1.302000000     1.617000000     4.080000000
O     1.100000000    -4.083000000    -0.529000000
H     0.317000000    -3.796000000    -0.059000000
H     0.762000000    -4.579000000    -1.275000000
O    -3.398000000    -0.741000000    -2.549000000
H    -3.262000000    -0.598000000    -1.612000000
H    -4.282000000    -1.102000000    -2.611000000
O     4.317000000    -0.966000000    -3.029000000
H     4.816000000    -1.694000000    -3.398000000
H     3.495000000    -0.966000000    -3.520000000
O    -3.045000000    -4.316000000    -2.049000000
H    -3.811000000    -4.868000000    -1.890000000
H    -2.606000000    -4.264000000    -1.200000000
O     2.077000000    -4.675000000     2.802000000
H     2.822000000    -4.098000000     2.970000000
H     2.447000000    -5.406000000     2.307000000
O    -2.771000000     4.584000000     1.148000000
H    -1.966000000     4.301000000     0.714000000
H    -3.443000000     4.522000000     0.470000000
O     3.363000000     2.478000000    -4.408000000
H     3.731000000     1.621000000    -4.627000000
H     3.653000000     3.051000000    -5.118000000
O     1.152000000    -2.586000000     6.725000000
H     0.908000000    -2.118000000     5.927000000
H     2.109000000    -2.605000000     6.708000000
O     2.959000000    -5.929000000     0.402000000
H     2.320000000    -5.224000000     0.295000000
H     3.799000000    -5.526000000     0.179000000
O     1.769000000    -1.346000000     4.327000000
H     2.362000000    -2.028000000     4.012000000
H     2.327000000    -0.577000000     4.440000000
O    -2.260000000     2.453000000     4.682000000
H    -2.614000000     1.605000000     4.414000000
H    -1.364000000     2.455000000     4.345000000
O    -5.389000000     1.487000000    -0.278000000
H    -4.735000000     0.830000000    -0.038000000
H    -6.147000000     0.976000000    -0.564000000
O     5.589000000     3.093000000    -3.225000000
H     4.711000000     2.969000000    -3.585000000
H     6.156000000     3.161000000    -3.993000000
O    -5.763000000    -2.285000000    -2.800000000
H    -6.369000000    -1.944000000    -3.458000000
H    -5.307000000    -3.001000000    -3.242000000
O     5.946000000     2.065000000    -0.592000000
H     5.488000000     2.455000000    -1.337000000
H     6.504000000     1.391000000    -0.980000000
O     5.846000000     4.364000000     1.035000000
H     6.543000000     4.651000000     1.625000000
H     6.196000000     3.578000000     0.615000000
O    -4.386000000    -5.481000000     1.880000000
H    -4.616000000    -4.566000000     1.722000000
H    -4.038000000    -5.491000000     2.772000000
O    -7.111000000    -0.408000000    -1.290000000
H    -6.604000000    -0.895000000    -1.939000000
H    -7.868000000    -0.966000000    -1.110000000
O    -2.551000000    -2.665000000     3.721000000
H    -2.785000000    -2.395000000     2.833000000
H    -2.133000000    -3.519000000     3.609000000
O     3.987000000    -2.927000000     2.752000000
H     4.600000000    -2.387000000     3.252000000
H     4.377000000    -2.985000000     1.880000000
O    -5.312000000    -2.866000000     0.047000000
H    -5.347000000    -2.825000000    -0.909000000
H    -4.509000000    -2.398000000     0.277000000
O    -0.697000000    -1.140000000    -2.905000000
H    -0.265000000    -0.897000000    -2.086000000
H    -1.622000000    -0.947000000    -2.754000000
O    -0.702000000     4.396000000    -0.573000000
H     0.103000000     4.142000000    -0.122000000
H    -0.518000000     4.240000000    -1.499000000
O     1.369000000     4.177000000    -3.038000000
H     0.495000000     4.100000000    -3.420000000
H     1.798000000     3.349000000    -3.252000000
O    -5.247000000     1.534000000     2.582000000
H    -5.046000000     1.982000000     1.761000000
H    -5.987000000     2.019000000     2.945000000
O     1.863000000    -1.621000000    -4.030000000
H     1.914000000    -2.526000000    -3.724000000
H     0.960000000    -1.358000000    -3.851000000
O    -1.624000000    -5.221000000     3.542000000
H    -0.842000000    -5.551000000     3.100000000
H    -1.469000000    -5.398000000     4.469000000
O     2.419000000    -4.368000000    -3.289000000
H     2.347000000    -5.153000000    -2.747000000
H     3.291000000    -4.023000000    -3.096000000
O    -3.442000000    -2.400000000     6.475000000
H    -3.417000000    -2.501000000     5.523000000
H    -2.566000000    -2.090000000     6.706000000
O    -5.171000000     3.920000000    -3.213000000
H    -5.696000000     4.136000000    -3.984000000
H    -4.613000000     3.196000000    -3.498000000
O    -1.583000000    -4.522000000     0.528000000
H    -2.082000000    -5.276000000     0.842000000
H    -2.022000000    -3.766000000     0.917000000
O     2.407000000     5.169000000    -0.453000000
H     2.218000000     5.008000000    -1.377000000
H     3.279000000     5.566000000    -0.452000000
O    -1.083000000    -0.708000000     5.476000000
H    -1.789000000    -0.809000000     4.837000000
H    -0.296000000    -0.583000000     4.945000000
O    -1.162000000     3.782000000    -3.789000000
H    -1.394000000     3.240000000    -4.543000000
H    -1.994000000     4.157000000    -3.499000000
O     1.515000000     3.399000000     1.355000000
H     1.776000000     4.057000000     0.710000000
H     2.264000000     3.334000000     1.947000000
O     6.736000000     0.300000000    -2.932000000
H     5.827000000     0.155000000    -2.671000000
H     6.937000000    -0.431000000    -3.517000000
O     3.874000000    -2.740000000    -0.263000000
H     3.769000000    -2.046000000    -0.913000000
H     3.000000000    -2.851000000     0.112000000
O     0.400000000    -7.000000000     1.072000000
H     1.170000000    -6.717000000     0.580000000
H    -0.320000000    -6.482000000     0.711000000
O    -6.344000000    -3.544000000     3.380000000
H    -6.254000000    -3.000000000     4.162000000
H    -6.505000000    -2.920000000     2.671000000
O     2.824000000    -0.732000000    -6.507000000
H     2.598000000    -0.878000000    -5.588000000
H     3.709000000    -0.368000000    -6.480000000
O     2.970000000     1.227000000     4.562000000
H     3.658000000     1.403000000     5.203000000
H     3.188000000     1.786000000     3.816000000
O    -5.249000000     4.347000000    -0.265000000
H    -4.965000000     3.472000000    -0.530000000
H    -5.597000000     4.738000000    -1.066000000
