144
-2811.81567
O     0.552000000     3.982000000    -2.491000000
H    -0.128000000     4.323000000    -1.909000000
H     0.076000000     3.448000000    -3.127000000
O    -5.092000000     2.904000000     2.494000000
H    -5.281000000     2.725000000     3.416000000
H    -4.400000000     2.283000000     2.267000000
O    -4.781000000     1.676000000    -0.078000000
H    -5.176000000     2.508000000     0.181000000
H    -4.031000000     1.574000000     0.507000000
O     0.125000000    -4.024000000     1.700000000
H     0.062000000    -4.320000000     2.608000000
H     0.824000000    -4.558000000     1.322000000
O    -3.032000000    -2.793000000     3.772000000
H    -2.875000000    -3.272000000     2.958000000
H    -2.876000000    -1.877000000     3.544000000
O    -0.726000000     2.936000000    -5.021000000
H    -1.509000000     2.445000000    -4.770000000
H    -0.438000000     2.525000000    -5.836000000
O    -5.553000000     4.749000000    -1.381000000
H    -5.156000000     4.775000000    -2.252000000
H    -4.811000000     4.796000000    -0.778000000
O    -2.905000000    -4.843000000     1.557000000
H    -2.532000000    -5.708000000     1.391000000
H    -2.478000000    -4.271000000     0.919000000
O    -5.696000000    -0.708000000     1.275000000
H    -5.725000000     0.245000000     1.197000000
H    -5.516000000    -0.868000000     2.202000000
O    -5.439000000    -2.503000000     5.632000000
H    -4.796000000    -2.135000000     5.025000000
H    -6.249000000    -2.551000000     5.123000000
O     4.978000000    -0.340000000    -6.005000000
H     5.414000000    -0.067000000    -5.198000000
H     5.304000000    -1.226000000    -6.165000000
O    -4.766000000    -0.282000000     3.835000000
H    -3.913000000     0.035000000     3.536000000
H    -4.920000000     0.182000000     4.657000000
O     6.354000000     0.954000000    -0.005000000
H     6.144000000     0.623000000     0.868000000
H     6.408000000     0.171000000    -0.552000000
O    -3.378000000     5.830000000     0.180000000
H    -3.811000000     5.784000000     1.033000000
H    -3.348000000     6.764000000    -0.024000000
O     3.080000000    -4.691000000     3.522000000
H     3.072000000    -5.288000000     2.774000000
H     2.213000000    -4.790000000     3.916000000
O     6.440000000    -1.070000000    -1.902000000
H     6.478000000    -0.581000000    -2.723000000
H     5.811000000    -1.772000000    -2.070000000
O    -0.871000000    -2.839000000    -0.354000000
H    -0.529000000    -3.284000000     0.422000000
H    -0.500000000    -1.958000000    -0.308000000
O     5.459000000     3.450000000    -0.554000000
H     4.577000000     3.088000000    -0.468000000
H     6.039000000     2.727000000    -0.316000000
O    -6.203000000     1.791000000    -2.953000000
H    -5.763000000     1.345000000    -2.229000000
H    -5.610000000     2.503000000    -3.191000000
O    -0.437000000    -5.181000000     4.282000000
H    -0.556000000    -6.123000000     4.402000000
H    -1.055000000    -4.782000000     4.895000000
O    -1.780000000    -0.085000000     5.765000000
H    -1.647000000     0.863000000     5.759000000
H    -1.903000000    -0.316000000     4.845000000
O     1.203000000    -5.991000000    -2.280000000
H     0.556000000    -5.285000000    -2.260000000
H     0.701000000    -6.781000000    -2.078000000
O     4.045000000     2.415000000    -6.226000000
H     4.590000000     2.778000000    -5.527000000
H     4.422000000     1.551000000    -6.398000000
O    -2.299000000    -3.933000000     6.175000000
H    -2.794000000    -3.611000000     5.421000000
H    -2.038000000    -3.141000000     6.646000000
O     3.410000000    -2.099000000     3.819000000
H     4.254000000    -1.868000000     3.430000000
H     3.350000000    -3.048000000     3.714000000
O    -2.668000000     1.451000000    -4.021000000
H    -3.308000000     1.726000000    -4.677000000
H    -3.048000000     0.664000000    -3.631000000
O     2.150000000     2.824000000    -0.399000000
H     1.871000000     1.914000000    -0.303000000
H     1.940000000     3.045000000    -1.306000000
O     3.914000000    -5.488000000    -2.875000000
H     4.193000000    -4.673000000    -2.457000000
H     2.958000000    -5.446000000    -2.869000000
O     1.065000000     1.780000000    -6.739000000
H     1.350000000     0.973000000    -6.310000000
H     1.837000000     2.346000000    -6.723000000
O     4.733000000    -2.992000000    -3.088000000
H     3.989000000    -3.303000000    -3.604000000
H     5.487000000    -3.457000000    -3.450000000
O    -0.969000000     5.225000000    -0.810000000
H    -1.875000000     5.484000000    -0.641000000
H    -0.483000000     5.547000000    -0.051000000
O     1.850000000    -0.567000000    -5.798000000
H     2.771000000    -0.503000000    -6.050000000
H     1.831000000    -1.254000000    -5.131000000
O     2.286000000     0.295000000     3.565000000
H     1.614000000     0.122000000     2.906000000
H     2.758000000    -0.534000000     3.650000000
O    -1.027000000     3.393000000     1.904000000
H    -0.567000000     3.157000000     1.099000000
H    -1.698000000     2.717000000     2.003000000
O    -3.711000000    -1.069000000    -3.414000000
H    -3.311000000    -1.914000000    -3.621000000
H    -3.799000000    -1.073000000    -2.460000000
O    -4.545000000    -1.682000000    -1.045000000
H    -4.853000000    -2.551000000    -0.791000000
H    -4.816000000    -1.111000000    -0.326000000
O    -5.732000000     6.033000000     2.479000000
H    -5.752000000     5.137000000     2.816000000
H    -5.245000000     6.526000000     3.140000000
O    -4.828000000     0.617000000     6.508000000
H    -4.623000000    -0.139000000     7.058000000
H    -4.065000000     1.189000000     6.593000000
O     1.826000000    -2.005000000     6.259000000
H     2.144000000    -1.896000000     5.362000000
H     2.349000000    -2.723000000     6.613000000
O     2.355000000     5.821000000    -4.149000000
H     1.792000000     5.076000000    -3.940000000
H     2.038000000     6.527000000    -3.586000000
O    -1.979000000     5.848000000     2.959000000
H    -1.506000000     5.579000000     3.746000000
H    -1.941000000     5.085000000     2.384000000
O    -8.134000000     2.373000000     1.577000000
H    -7.354000000     2.621000000     2.074000000
H    -8.867000000     2.639000000     2.133000000
O    -2.295000000     2.582000000     6.633000000
H    -2.110000000     3.360000000     6.108000000
H    -2.523000000     2.925000000     7.498000000
O     4.412000000     1.117000000     2.155000000
H     4.499000000     2.069000000     2.095000000
H     3.844000000     0.976000000     2.913000000
O     2.190000000    -3.698000000    -4.354000000
H     2.295000000    -4.649000000    -4.362000000
H     1.384000000    -3.541000000    -4.846000000
O    -0.001000000    -0.884000000     7.650000000
H     0.733000000    -1.255000000     7.160000000
H    -0.699000000    -0.792000000     7.002000000
O     5.728000000    -1.257000000     2.463000000
H     6.585000000    -1.288000000     2.038000000
H     5.352000000    -0.422000000     2.183000000
O    -1.312000000    -4.557000000    -2.385000000
H    -1.213000000    -4.050000000    -1.579000000
H    -1.572000000    -3.912000000    -3.043000000
