144
-2788.04905
O    -6.847000000    -3.187000000     3.826000000
H    -6.255000000    -2.833000000     3.162000000
H    -7.696000000    -3.236000000     3.387000000
O    -4.105000000    -0.433000000    -4.720000000
H    -3.279000000    -0.244000000    -5.165000000
H    -3.862000000    -0.535000000    -3.799000000
O     5.777000000    -0.110000000    -0.396000000
H     6.112000000    -0.523000000    -1.192000000
H     5.742000000     0.823000000    -0.607000000
O     3.600000000     2.993000000     4.014000000
H     2.751000000     3.289000000     4.342000000
H     4.223000000     3.641000000     4.343000000
O     6.087000000    -2.042000000     2.165000000
H     5.632000000    -1.810000000     1.355000000
H     5.940000000    -1.296000000     2.745000000
O    -4.379000000     0.355000000     2.607000000
H    -4.072000000    -0.036000000     1.789000000
H    -4.986000000     1.043000000     2.331000000
O    -0.462000000    -0.232000000     4.075000000
H     0.313000000    -0.449000000     3.556000000
H    -1.095000000    -0.916000000     3.856000000
O     0.069000000    -4.308000000    -2.071000000
H    -0.731000000    -4.284000000    -1.546000000
H    -0.033000000    -5.080000000    -2.628000000
O    -3.907000000    -1.441000000    -2.275000000
H    -4.052000000    -1.315000000    -1.337000000
H    -4.323000000    -2.281000000    -2.470000000
O     3.641000000    -3.880000000    -3.691000000
H     3.521000000    -4.693000000    -3.201000000
H     3.358000000    -3.193000000    -3.087000000
O    -7.380000000    -1.434000000    -0.117000000
H    -7.555000000    -0.768000000     0.548000000
H    -6.654000000    -1.945000000     0.242000000
O    -4.708000000    -4.021000000    -0.929000000
H    -5.241000000    -4.815000000    -0.889000000
H    -3.810000000    -4.328000000    -0.805000000
O     0.231000000    -4.860000000     3.602000000
H     0.500000000    -5.686000000     4.003000000
H     0.867000000    -4.717000000     2.900000000
O    -2.890000000     4.932000000    -2.240000000
H    -3.354000000     4.163000000    -1.908000000
H    -2.036000000     4.596000000    -2.514000000
O     2.389000000     6.279000000     1.200000000
H     2.559000000     6.456000000     2.125000000
H     2.301000000     7.146000000     0.803000000
O    -4.596000000     4.448000000     1.141000000
H    -3.717000000     4.814000000     1.234000000
H    -4.517000000     3.812000000     0.430000000
O     1.028000000     0.700000000    -4.258000000
H     0.560000000     0.030000000    -3.761000000
H     1.551000000     0.208000000    -4.891000000
O     5.486000000     2.721000000    -1.234000000
H     4.923000000     3.136000000    -1.887000000
H     5.207000000     3.101000000    -0.401000000
O     2.901000000    -2.587000000     4.487000000
H     2.885000000    -3.056000000     3.653000000
H     2.893000000    -1.662000000     4.242000000
O    -2.836000000     0.929000000     4.648000000
H    -3.426000000     0.535000000     4.006000000
H    -1.966000000     0.618000000     4.396000000
O    -5.685000000     0.678000000    -0.390000000
H    -4.986000000     0.042000000    -0.243000000
H    -6.435000000     0.151000000    -0.665000000
O     3.890000000    -0.660000000    -3.098000000
H     3.515000000     0.190000000    -2.867000000
H     3.307000000    -1.298000000    -2.686000000
O     6.471000000    -1.531000000    -2.458000000
H     5.646000000    -1.276000000    -2.869000000
H     6.549000000    -2.468000000    -2.638000000
O     8.628000000     1.257000000     0.494000000
H     7.836000000     1.525000000     0.029000000
H     8.549000000     1.665000000     1.357000000
O     0.772000000     5.794000000    -5.007000000
H     0.635000000     5.441000000    -4.128000000
H     0.558000000     5.067000000    -5.593000000
O     4.442000000     4.016000000    -3.657000000
H     4.980000000     4.767000000    -3.406000000
H     4.788000000     3.748000000    -4.509000000
O    -4.596000000    -5.546000000     2.804000000
H    -4.876000000    -4.745000000     2.361000000
H    -3.704000000    -5.694000000     2.492000000
O     2.559000000    -3.953000000     2.140000000
H     3.317000000    -4.513000000     2.308000000
H     2.306000000    -4.157000000     1.239000000
O    -5.289000000    -3.027000000     1.438000000
H    -5.343000000    -3.449000000     0.581000000
H    -4.448000000    -2.571000000     1.428000000
O    -1.167000000    -1.609000000    -3.467000000
H    -1.753000000    -1.494000000    -2.719000000
H    -1.545000000    -2.339000000    -3.957000000
O    -2.072000000     6.602000000     0.074000000
H    -2.247000000     6.093000000    -0.718000000
H    -1.158000000     6.413000000     0.283000000
O     5.854000000     0.901000000    -4.589000000
H     5.325000000     0.103000000    -4.610000000
H     5.589000000     1.342000000    -3.782000000
O    -1.641000000     3.799000000     1.343000000
H    -0.795000000     4.066000000     0.984000000
H    -1.679000000     2.855000000     1.190000000
O     0.113000000     3.304000000    -3.361000000
H    -0.742000000     3.132000000    -3.755000000
H     0.636000000     2.530000000    -3.573000000
O    -8.156000000     0.266000000     1.688000000
H    -7.641000000     1.058000000     1.533000000
H    -8.304000000     0.259000000     2.634000000
O     2.034000000    -2.429000000    -1.860000000
H     1.637000000    -2.071000000    -1.066000000
H     1.391000000    -3.059000000    -2.186000000
O    -1.744000000    -5.982000000     1.934000000
H    -1.315000000    -5.408000000     2.569000000
H    -1.162000000    -6.739000000     1.864000000
O    -2.567000000    -5.082000000     5.835000000
H    -1.671000000    -5.403000000     5.931000000
H    -2.467000000    -4.160000000     5.597000000
O    -2.101000000    -4.223000000    -0.343000000
H    -2.181000000    -4.971000000     0.248000000
H    -2.033000000    -3.465000000     0.238000000
O     2.076000000     4.627000000    -2.346000000
H     1.450000000     4.073000000    -2.814000000
H     2.920000000     4.430000000    -2.753000000
O    -1.936000000    -2.849000000     3.819000000
H    -2.205000000    -2.639000000     2.925000000
H    -1.312000000    -3.568000000     3.719000000
O    -2.068000000     3.212000000    -5.085000000
H    -1.980000000     2.374000000    -5.540000000
H    -2.830000000     3.626000000    -5.490000000
O     0.398000000     4.571000000    -0.017000000
H     1.071000000     5.112000000     0.397000000
H     0.862000000     4.096000000    -0.706000000
O     0.715000000     7.103000000    -2.328000000
H     0.835000000     6.171000000    -2.145000000
H     1.354000000     7.542000000    -1.766000000
O     3.877000000     3.858000000     1.175000000
H     3.827000000     3.674000000     2.113000000
H     3.421000000     4.694000000     1.071000000
O     1.756000000    -4.881000000    -0.095000000
H     2.392000000    -5.138000000    -0.763000000
H     0.934000000    -4.780000000    -0.575000000
O     3.215000000     0.353000000     4.187000000
H     3.283000000     1.299000000     4.057000000
H     4.103000000     0.027000000     4.041000000
O    -4.446000000     2.986000000    -1.332000000
H    -4.915000000     2.436000000    -0.704000000
H    -4.628000000     2.587000000    -2.183000000
