144
-2822.65322
O     3.277000000    -3.609000000    -1.878000000
H     3.138000000    -4.542000000    -2.040000000
H     3.819000000    -3.582000000    -1.089000000
O     3.142000000    -0.179000000    -3.103000000
H     3.727000000     0.387000000    -2.597000000
H     3.694000000    -0.912000000    -3.374000000
O    -7.620000000     4.658000000     0.573000000
H    -8.508000000     4.303000000     0.605000000
H    -7.055000000     3.886000000     0.538000000
O     0.270000000    -0.640000000    -3.268000000
H    -0.180000000    -0.730000000    -2.429000000
H     1.199000000    -0.613000000    -3.040000000
O     7.241000000     0.058000000     0.064000000
H     8.127000000     0.413000000     0.139000000
H     7.267000000    -0.759000000     0.561000000
O    -2.042000000    -3.401000000     2.416000000
H    -2.065000000    -2.528000000     2.808000000
H    -2.872000000    -3.475000000     1.945000000
O     4.302000000     2.385000000     0.736000000
H     5.097000000     2.400000000     1.270000000
H     4.539000000     1.862000000    -0.030000000
O    -3.252000000    -0.345000000    -3.105000000
H    -3.563000000    -0.349000000    -2.200000000
H    -3.176000000    -1.271000000    -3.337000000
O     1.480000000    -4.760000000     0.773000000
H     2.364000000    -5.048000000     0.542000000
H     0.909000000    -5.234000000     0.168000000
O    -3.270000000     6.133000000     1.648000000
H    -4.166000000     6.451000000     1.538000000
H    -2.985000000     6.501000000     2.484000000
O    -8.051000000    -2.844000000     0.059000000
H    -7.763000000    -3.691000000    -0.282000000
H    -7.298000000    -2.266000000    -0.069000000
O    -4.782000000     4.404000000     3.329000000
H    -5.049000000     5.150000000     3.867000000
H    -4.038000000     4.730000000     2.823000000
O     1.544000000     1.490000000    -4.676000000
H     0.656000000     1.160000000    -4.815000000
H     1.954000000     0.841000000    -4.104000000
O     2.485000000    -1.334000000     3.893000000
H     1.771000000    -1.945000000     3.708000000
H     2.062000000    -0.476000000     3.927000000
O     4.558000000    -4.379000000     0.571000000
H     4.356000000    -3.997000000     1.425000000
H     5.373000000    -4.860000000     0.711000000
O     4.067000000    -2.521000000    -4.128000000
H     4.626000000    -3.146000000    -4.590000000
H     3.898000000    -2.932000000    -3.280000000
O    -6.411000000    -0.097000000    -4.699000000
H    -7.181000000     0.306000000    -5.100000000
H    -6.642000000    -0.187000000    -3.774000000
O    -2.761000000    -0.465000000     3.634000000
H    -3.591000000    -0.724000000     3.233000000
H    -2.692000000     0.473000000     3.457000000
O    -3.402000000     7.083000000    -2.182000000
H    -3.376000000     6.238000000    -1.733000000
H    -3.637000000     7.710000000    -1.498000000
O    -5.268000000    -4.087000000    -1.693000000
H    -5.867000000    -3.404000000    -1.993000000
H    -4.436000000    -3.881000000    -2.119000000
O    -2.406000000     2.235000000     2.613000000
H    -1.879000000     3.000000000     2.843000000
H    -2.655000000     2.382000000     1.700000000
O    -2.829000000    -3.362000000    -3.133000000
H    -3.163000000    -3.614000000    -3.994000000
H    -1.886000000    -3.519000000    -3.186000000
O     1.234000000     1.458000000     3.260000000
H     0.348000000     1.819000000     3.289000000
H     1.380000000     1.256000000     2.336000000
O     0.507000000     3.710000000    -2.896000000
H     1.060000000     4.074000000    -3.587000000
H     0.429000000     2.782000000    -3.116000000
O     2.260000000     4.308000000     1.390000000
H     1.851000000     4.803000000     0.680000000
H     2.860000000     3.707000000     0.948000000
O     0.773000000     5.274000000    -0.491000000
H     0.843000000     4.899000000    -1.369000000
H    -0.098000000     5.017000000    -0.190000000
O    -1.531000000     1.672000000    -4.831000000
H    -2.486000000     1.714000000    -4.782000000
H    -1.287000000     1.004000000    -4.190000000
O    -2.698000000     4.645000000    -1.090000000
H    -2.750000000     3.694000000    -1.189000000
H    -2.474000000     4.778000000    -0.169000000
O     0.072000000    -3.631000000    -2.945000000
H     0.374000000    -2.724000000    -2.900000000
H     0.297000000    -3.915000000    -3.831000000
O    -7.926000000     0.748000000    -2.398000000
H    -8.016000000     0.658000000    -1.449000000
H    -7.642000000     1.653000000    -2.526000000
O     6.135000000    -4.924000000    -1.677000000
H     5.757000000    -4.303000000    -1.054000000
H     7.077000000    -4.886000000    -1.511000000
O    -8.308000000     0.648000000     0.073000000
H    -7.689000000     1.189000000     0.563000000
H    -9.161000000     0.856000000     0.454000000
O     5.215000000     0.754000000    -1.513000000
H     6.029000000     0.586000000    -1.038000000
H     5.457000000     1.394000000    -2.182000000
O     3.018000000     3.733000000     4.417000000
H     2.479000000     3.067000000     4.845000000
H     2.848000000     3.614000000     3.483000000
O     4.706000000    -2.672000000     2.696000000
H     4.078000000    -2.041000000     3.048000000
H     5.305000000    -2.144000000     2.169000000
O    -5.777000000     2.614000000     0.365000000
H    -5.727000000     2.466000000     1.309000000
H    -4.953000000     2.268000000     0.024000000
O    -0.888000000    -5.900000000     2.228000000
H    -0.262000000    -5.183000000     2.129000000
H    -1.744000000    -5.470000000     2.243000000
O    -4.438000000     2.326000000    -4.514000000
H    -5.063000000     2.377000000    -5.237000000
H    -4.581000000     1.459000000    -4.134000000
O     3.627000000    -4.681000000     4.278000000
H     3.868000000    -3.901000000     3.777000000
H     4.266000000    -4.715000000     4.989000000
O    -0.698000000     4.217000000     2.658000000
H     0.237000000     4.367000000     2.516000000
H    -1.015000000     5.033000000     3.047000000
O    -1.105000000     5.460000000    -4.227000000
H    -2.060000000     5.391000000    -4.212000000
H    -0.819000000     4.984000000    -3.448000000
O    -6.116000000    -1.161000000    -1.393000000
H    -6.809000000    -0.625000000    -1.779000000
H    -5.535000000    -0.532000000    -0.966000000
O     4.589000000     0.554000000     5.099000000
H     4.062000000    -0.042000000     4.568000000
H     5.407000000     0.650000000     4.611000000
O    -6.611000000     3.286000000    -2.357000000
H    -5.945000000     3.097000000    -3.018000000
H    -6.117000000     3.394000000    -1.544000000
O    -4.635000000    -0.838000000     1.616000000
H    -4.258000000    -0.532000000     0.791000000
H    -5.308000000    -0.190000000     1.826000000
O    -0.021000000    -5.922000000    -1.438000000
H    -0.015000000    -5.063000000    -1.860000000
H     0.892000000    -6.207000000    -1.461000000
O    -4.480000000    -3.544000000     1.120000000
H    -5.129000000    -3.904000000     0.515000000
H    -4.850000000    -2.705000000     1.395000000
O     0.760000000    -3.395000000     2.862000000
H     1.136000000    -3.870000000     2.121000000
H    -0.183000000    -3.400000000     2.695000000
