144
-2797.29592
O     7.341000000     3.417000000    -0.851000000
H     6.983000000     3.863000000    -0.083000000
H     6.907000000     3.834000000    -1.595000000
O    -3.331000000     0.600000000    -5.773000000
H    -3.214000000     1.097000000    -4.964000000
H    -2.533000000     0.077000000    -5.850000000
O     1.655000000     6.499000000    -3.345000000
H     1.693000000     7.409000000    -3.639000000
H     1.432000000     6.001000000    -4.131000000
O    -3.751000000    -5.888000000    -4.601000000
H    -3.627000000    -5.261000000    -3.889000000
H    -4.631000000    -6.238000000    -4.461000000
O     5.748000000     6.409000000    -1.003000000
H     5.180000000     5.705000000    -1.314000000
H     5.842000000     6.992000000    -1.756000000
O     3.809000000    -2.372000000    -0.906000000
H     3.066000000    -2.951000000    -1.079000000
H     4.472000000    -2.943000000    -0.518000000
O    -2.295000000     5.420000000    -3.901000000
H    -1.620000000     5.283000000    -3.236000000
H    -2.266000000     6.360000000    -4.081000000
O     6.518000000     1.475000000    -3.570000000
H     6.186000000     2.373000000    -3.562000000
H     5.793000000     0.949000000    -3.231000000
O    -4.219000000     1.470000000     1.579000000
H    -3.630000000     1.997000000     2.118000000
H    -4.035000000     0.566000000     1.836000000
O    -3.551000000    -2.068000000     5.110000000
H    -3.617000000    -1.706000000     4.227000000
H    -2.615000000    -2.041000000     5.310000000
O     2.701000000     2.498000000    -3.076000000
H     2.868000000     1.571000000    -2.904000000
H     2.813000000     2.923000000    -2.225000000
O    -0.541000000     2.632000000    -4.187000000
H    -0.043000000     3.256000000    -3.658000000
H     0.101000000     1.971000000    -4.446000000
O    -2.553000000     6.103000000     0.571000000
H    -2.478000000     6.918000000     0.075000000
H    -1.673000000     5.950000000     0.916000000
O     6.582000000    -0.535000000     3.029000000
H     6.344000000    -1.451000000     3.173000000
H     6.591000000    -0.437000000     2.077000000
O     3.805000000     0.586000000     3.332000000
H     3.639000000     1.473000000     3.012000000
H     4.651000000     0.350000000     2.953000000
O     6.186000000     3.758000000     1.658000000
H     5.340000000     3.319000000     1.746000000
H     6.673000000     3.500000000     2.440000000
O     3.337000000    -0.745000000     6.030000000
H     3.329000000    -0.084000000     5.338000000
H     4.188000000    -1.175000000     5.941000000
O     2.170000000     4.370000000    -5.325000000
H     1.678000000     3.707000000    -5.811000000
H     2.328000000     3.971000000    -4.470000000
O     0.598000000    -4.320000000    -4.636000000
H     0.439000000    -4.415000000    -3.697000000
H    -0.098000000    -4.830000000    -5.050000000
O    -1.801000000    -6.958000000    -0.210000000
H    -1.380000000    -6.632000000     0.585000000
H    -1.099000000    -6.983000000    -0.860000000
O    -2.914000000    -6.030000000     2.850000000
H    -3.597000000    -6.429000000     3.389000000
H    -2.176000000    -5.911000000     3.448000000
O     2.098000000    -2.307000000     3.569000000
H     1.972000000    -2.980000000     4.238000000
H     2.440000000    -1.553000000     4.048000000
O    -3.276000000    -3.342000000    -3.376000000
H    -3.088000000    -3.098000000    -4.282000000
H    -4.068000000    -2.851000000    -3.155000000
O     1.314000000     8.513000000     0.025000000
H     2.270000000     8.476000000     0.012000000
H     1.039000000     7.597000000     0.079000000
O    -0.831000000    -4.501000000    -2.163000000
H    -1.681000000    -4.111000000    -2.366000000
H    -0.944000000    -5.433000000    -2.349000000
O    -0.578000000    -3.142000000     5.295000000
H     0.333000000    -3.419000000     5.387000000
H    -0.674000000    -2.423000000     5.920000000
O     1.612000000    -4.211000000    -1.019000000
H     1.410000000    -4.938000000    -0.430000000
H     0.772000000    -3.774000000    -1.156000000
O     3.418000000     5.020000000    -1.722000000
H     2.909000000     4.506000000    -1.095000000
H     2.762000000     5.514000000    -2.215000000
O    -0.191000000     4.921000000    -2.121000000
H     0.399000000     5.595000000    -2.459000000
H     0.296000000     4.513000000    -1.406000000
O    -3.871000000    -1.082000000     2.702000000
H    -2.959000000    -0.792000000     2.683000000
H    -3.844000000    -1.977000000     2.366000000
O     1.452000000    -1.182000000    -2.418000000
H     0.514000000    -1.334000000    -2.306000000
H     1.754000000    -0.905000000    -1.552000000
O    -4.636000000    -6.550000000     0.689000000
H    -3.800000000    -6.548000000     1.154000000
H    -4.601000000    -5.774000000     0.130000000
O     4.563000000    -0.233000000    -2.539000000
H     4.842000000     0.355000000    -1.837000000
H     4.107000000    -0.944000000    -2.088000000
O     0.097000000     2.313000000     3.347000000
H    -0.755000000     2.559000000     2.988000000
H     0.094000000     1.356000000     3.336000000
O     0.049000000    -0.370000000     3.586000000
H     0.103000000    -1.320000000     3.695000000
H     0.268000000    -0.223000000     2.666000000
O    -2.171000000     3.214000000     2.353000000
H    -1.965000000     3.675000000     1.539000000
H    -2.114000000     3.887000000     3.030000000
O    -4.493000000    -4.031000000    -0.674000000
H    -3.977000000    -3.417000000    -1.197000000
H    -5.359000000    -4.024000000    -1.082000000
O    -6.679000000     1.600000000     0.276000000
H    -5.946000000     1.222000000     0.762000000
H    -7.458000000     1.268000000     0.722000000
O     0.509000000     6.026000000     0.793000000
H     0.807000000     5.314000000     0.227000000
H     0.922000000     5.850000000     1.638000000
O     5.620000000     1.074000000    -0.406000000
H     4.851000000     1.586000000    -0.156000000
H     6.365000000     1.610000000    -0.132000000
O     0.458000000    -6.561000000     1.301000000
H     0.695000000    -6.646000000     2.225000000
H     1.293000000    -6.433000000     0.851000000
O     3.605000000     2.904000000     2.181000000
H     2.996000000     3.565000000     2.511000000
H     3.204000000     2.591000000     1.370000000
O     5.090000000    -2.729000000     2.983000000
H     4.259000000    -2.254000000     2.990000000
H     4.887000000    -3.561000000     2.556000000
O    -3.911000000    -3.702000000     2.074000000
H    -4.356000000    -3.877000000     1.245000000
H    -3.617000000    -4.562000000     2.375000000
O    -3.274000000     1.972000000    -3.607000000
H    -3.645000000     2.212000000    -2.758000000
H    -2.343000000     2.178000000    -3.529000000
O     1.641000000     4.405000000     3.216000000
H     1.883000000     4.566000000     4.128000000
H     1.079000000     3.630000000     3.251000000
O    -6.544000000    -0.934000000     3.091000000
H    -5.615000000    -0.709000000     3.145000000
H    -6.662000000    -1.622000000     3.746000000
O    -3.989000000     2.527000000    -1.028000000
H    -4.088000000     1.918000000    -0.295000000
H    -4.596000000     3.240000000    -0.829000000
