144
-2804.16988
O    -7.484000000    -4.781000000     1.118000000
H    -6.972000000    -4.086000000     1.533000000
H    -8.228000000    -4.327000000     0.723000000
O    -3.386000000     1.127000000    -2.601000000
H    -2.934000000     0.901000000    -1.788000000
H    -4.315000000     1.024000000    -2.395000000
O     5.386000000     1.617000000     3.874000000
H     4.437000000     1.742000000     3.855000000
H     5.549000000     0.922000000     3.236000000
O     7.794000000     1.810000000    -0.499000000
H     7.406000000     2.637000000    -0.784000000
H     7.115000000     1.157000000    -0.666000000
O     5.666000000    -0.126000000    -1.937000000
H     5.995000000    -0.538000000    -1.138000000
H     4.723000000    -0.288000000    -1.919000000
O     6.387000000    -1.740000000     0.253000000
H     5.917000000    -2.555000000     0.074000000
H     7.307000000    -1.958000000     0.108000000
O     0.120000000     3.655000000     3.819000000
H     0.045000000     4.033000000     2.943000000
H     0.902000000     4.064000000     4.189000000
O    -4.597000000     1.888000000     1.497000000
H    -4.426000000     1.101000000     0.980000000
H    -3.771000000     2.062000000     1.948000000
O    -5.455000000     0.151000000     3.790000000
H    -6.336000000    -0.212000000     3.884000000
H    -5.544000000     0.822000000     3.113000000
O     1.160000000    -0.430000000     3.179000000
H     0.571000000    -0.572000000     2.438000000
H     1.291000000    -1.302000000     3.551000000
O     0.015000000     5.721000000     2.129000000
H     0.450000000     5.982000000     1.317000000
H     0.239000000     6.412000000     2.753000000
O    -2.083000000    -3.997000000    -2.056000000
H    -2.748000000    -4.094000000    -1.374000000
H    -2.580000000    -3.979000000    -2.874000000
O    -5.049000000    -1.352000000    -2.153000000
H    -4.562000000    -0.871000000    -1.484000000
H    -5.949000000    -1.367000000    -1.829000000
O    -7.490000000    -1.789000000    -1.054000000
H    -7.530000000    -1.333000000    -0.213000000
H    -8.217000000    -2.411000000    -1.024000000
O     0.719000000    -4.848000000     1.150000000
H     0.950000000    -4.778000000     0.224000000
H     1.140000000    -4.093000000     1.560000000
O    -1.855000000     2.854000000    -3.928000000
H    -2.402000000     2.192000000    -3.504000000
H    -2.048000000     2.760000000    -4.861000000
O    -6.473000000     3.720000000     2.218000000
H    -5.828000000     3.062000000     1.960000000
H    -5.955000000     4.427000000     2.602000000
O    -1.944000000    -0.074000000    -5.048000000
H    -2.842000000    -0.401000000    -4.999000000
H    -1.494000000    -0.499000000    -4.317000000
O    -2.673000000     1.714000000     3.408000000
H    -1.900000000     1.575000000     3.956000000
H    -2.955000000     0.833000000     3.163000000
O     4.553000000     4.393000000    -0.875000000
H     4.014000000     4.417000000    -1.666000000
H     5.445000000     4.260000000    -1.197000000
O     2.458000000    -3.069000000     3.528000000
H     2.338000000    -3.964000000     3.845000000
H     2.990000000    -2.646000000     4.202000000
O    -1.367000000    -2.844000000     5.180000000
H    -1.278000000    -3.535000000     4.524000000
H    -1.712000000    -2.095000000     4.694000000
O    -5.809000000     1.307000000    -1.206000000
H    -5.047000000     1.202000000    -0.635000000
H    -6.509000000     1.595000000    -0.620000000
O     3.976000000     2.938000000    -5.605000000
H     3.985000000     1.980000000    -5.615000000
H     3.221000000     3.176000000    -6.142000000
O     1.987000000    -3.152000000    -3.908000000
H     2.683000000    -3.071000000    -4.561000000
H     1.189000000    -3.273000000    -4.423000000
O     4.107000000    -1.771000000    -5.011000000
H     4.169000000    -2.039000000    -5.928000000
H     3.713000000    -0.899000000    -5.042000000
O     4.026000000     4.707000000    -3.554000000
H     4.107000000     5.417000000    -4.191000000
H     4.153000000     3.909000000    -4.066000000
O     2.626000000     1.657000000     3.977000000
H     2.418000000     0.747000000     3.764000000
H     1.912000000     2.163000000     3.589000000
O    -4.963000000    -5.564000000     2.405000000
H    -5.608000000    -5.629000000     1.700000000
H    -4.197000000    -5.164000000     1.992000000
O    -5.939000000    -2.286000000     1.553000000
H    -6.446000000    -1.724000000     0.968000000
H    -5.042000000    -2.227000000     1.225000000
O    -6.668000000    -2.785000000     4.246000000
H    -7.484000000    -2.370000000     4.529000000
H    -6.532000000    -2.462000000     3.356000000
O     4.921000000    -0.675000000     2.429000000
H     4.446000000    -1.101000000     3.143000000
H     5.578000000    -1.317000000     2.161000000
O    -4.001000000    -3.405000000    -3.781000000
H    -4.858000000    -3.623000000    -4.148000000
H    -4.189000000    -2.768000000    -3.092000000
O    -1.964000000     5.053000000    -1.813000000
H    -1.652000000     4.377000000    -2.414000000
H    -2.887000000     5.166000000    -2.037000000
O    -2.664000000     5.163000000     1.165000000
H    -1.886000000     5.350000000     1.690000000
H    -2.323000000     4.973000000     0.290000000
O     0.678000000     2.928000000    -3.392000000
H     1.052000000     2.413000000    -4.108000000
H    -0.266000000     2.911000000    -3.553000000
O    -8.045000000    -0.324000000     1.244000000
H    -8.112000000     0.569000000     0.907000000
H    -8.370000000    -0.267000000     2.142000000
O    -0.980000000    -1.141000000    -2.660000000
H    -1.252000000    -1.997000000    -2.331000000
H    -0.468000000    -0.761000000    -1.946000000
O    -4.818000000    -6.368000000    -1.146000000
H    -4.284000000    -5.725000000    -0.681000000
H    -4.193000000    -7.031000000    -1.439000000
O    -1.290000000    -4.738000000     2.850000000
H    -0.723000000    -4.811000000     2.082000000
H    -1.684000000    -5.606000000     2.940000000
O    -3.330000000    -4.438000000     0.538000000
H    -2.595000000    -4.622000000     1.123000000
H    -3.522000000    -3.511000000     0.679000000
O     1.716000000     5.154000000    -2.026000000
H     1.429000000     4.268000000    -2.246000000
H     2.482000000     5.303000000    -2.581000000
O    -3.042000000    -1.180000000     3.617000000
H    -3.906000000    -0.771000000     3.581000000
H    -2.884000000    -1.485000000     2.723000000
O     1.436000000     1.100000000    -5.404000000
H     1.067000000     0.855000000    -6.252000000
H     1.044000000     0.484000000    -4.785000000
O     1.602000000     6.831000000     0.121000000
H     2.452000000     6.883000000     0.558000000
H     1.770000000     6.319000000    -0.670000000
O     3.859000000     6.427000000     1.699000000
H     4.126000000     5.642000000     1.221000000
H     4.579000000     6.595000000     2.306000000
O     2.143000000    -4.364000000    -1.104000000
H     3.069000000    -4.497000000    -0.904000000
H     2.143000000    -3.887000000    -1.934000000
O    -6.313000000     2.324000000    -3.634000000
H    -5.991000000     1.810000000    -2.893000000
H    -7.108000000     1.870000000    -3.913000000
