144
-2838.92045
O     1.666000000     1.330000000    -3.576000000
H     1.373000000     2.215000000    -3.356000000
H     0.858000000     0.820000000    -3.641000000
O    -1.871000000     4.244000000     3.530000000
H    -2.170000000     3.401000000     3.871000000
H    -1.028000000     4.051000000     3.120000000
O    -3.509000000    -3.173000000    -6.324000000
H    -3.326000000    -3.141000000    -5.385000000
H    -4.228000000    -2.555000000    -6.450000000
O     2.132000000    -4.395000000     0.174000000
H     1.563000000    -5.149000000     0.329000000
H     1.914000000    -3.782000000     0.876000000
O    -1.290000000    -0.360000000    -6.725000000
H    -1.274000000    -1.147000000    -6.180000000
H    -1.889000000    -0.575000000    -7.439000000
O    -4.400000000     3.083000000     0.188000000
H    -3.502000000     3.412000000     0.230000000
H    -4.834000000     3.473000000     0.946000000
O    -5.136000000    -3.601000000     0.196000000
H    -4.615000000    -3.284000000     0.934000000
H    -5.423000000    -4.474000000     0.464000000
O     3.349000000    -3.455000000    -1.959000000
H     2.921000000    -3.950000000    -1.261000000
H     4.019000000    -4.050000000    -2.298000000
O    -1.936000000     4.247000000     0.366000000
H    -1.002000000     4.041000000     0.357000000
H    -2.004000000     5.077000000    -0.106000000
O     2.114000000     0.764000000     4.596000000
H     2.015000000     1.387000000     5.316000000
H     3.027000000     0.858000000     4.323000000
O     4.739000000    -0.774000000     0.140000000
H     5.312000000    -0.745000000    -0.626000000
H     4.443000000     0.129000000     0.252000000
O     3.519000000    -2.271000000     2.333000000
H     3.854000000    -1.750000000     1.603000000
H     4.093000000    -3.036000000     2.365000000
O    -4.254000000    -1.294000000    -1.197000000
H    -4.055000000    -0.820000000    -0.389000000
H    -4.439000000    -2.188000000    -0.910000000
O    -2.913000000    -1.619000000    -3.578000000
H    -3.292000000    -1.244000000    -2.784000000
H    -2.846000000    -2.556000000    -3.393000000
O    -6.481000000    -2.986000000    -2.621000000
H    -6.019000000    -2.986000000    -1.783000000
H    -6.796000000    -2.088000000    -2.721000000
O     1.543000000    -1.898000000    -3.285000000
H     2.419000000    -2.253000000    -3.134000000
H     1.088000000    -2.018000000    -2.452000000
O     0.106000000    -4.645000000    -5.688000000
H     0.016000000    -3.769000000    -5.313000000
H    -0.335000000    -5.219000000    -5.062000000
O     2.130000000     3.137000000     6.000000000
H     2.856000000     3.330000000     6.592000000
H     1.409000000     3.679000000     6.320000000
O     1.567000000     4.917000000     3.529000000
H     1.559000000     4.177000000     2.922000000
H     1.798000000     4.532000000     4.374000000
O     0.526000000    -3.803000000     2.848000000
H     1.337000000    -3.616000000     3.320000000
H     0.039000000    -4.386000000     3.431000000
O     3.559000000     3.851000000     0.266000000
H     2.613000000     3.966000000     0.351000000
H     3.660000000     3.203000000    -0.431000000
O    -0.834000000     1.313000000    -4.765000000
H    -0.648000000     2.174000000    -5.139000000
H    -0.869000000     0.726000000    -5.520000000
O     0.214000000    -6.711000000    -2.265000000
H     1.007000000    -6.914000000    -1.768000000
H    -0.467000000    -6.614000000    -1.600000000
O     1.188000000     3.812000000    -2.362000000
H     1.913000000     4.353000000    -2.674000000
H     1.164000000     3.965000000    -1.417000000
O     2.983000000     6.125000000    -2.096000000
H     2.432000000     6.533000000    -1.428000000
H     3.866000000     6.440000000    -1.904000000
O    -3.176000000     3.368000000    -3.257000000
H    -3.806000000     2.846000000    -3.755000000
H    -3.431000000     3.243000000    -2.343000000
O    -0.607000000    -2.053000000    -4.785000000
H    -1.332000000    -1.789000000    -4.219000000
H     0.179000000    -1.842000000    -4.282000000
O     2.972000000     1.268000000    -1.268000000
H     2.400000000     1.069000000    -2.009000000
H     2.694000000     0.663000000    -0.581000000
O     1.195000000     7.502000000     2.941000000
H     0.250000000     7.403000000     3.055000000
H     1.550000000     6.631000000     3.120000000
O    -0.495000000     0.555000000     3.699000000
H    -0.726000000     0.498000000     2.772000000
H     0.458000000     0.464000000     3.715000000
O     4.981000000     1.359000000     4.211000000
H     4.778000000     1.462000000     3.281000000
H     5.184000000     2.244000000     4.511000000
O    -2.754000000     1.448000000     2.355000000
H    -3.363000000     0.771000000     2.060000000
H    -2.628000000     2.007000000     1.589000000
O     0.629000000    -1.199000000     6.316000000
H    -0.135000000    -0.765000000     5.936000000
H     1.368000000    -0.875000000     5.801000000
O    -2.445000000    -5.948000000    -0.602000000
H    -2.982000000    -6.734000000    -0.505000000
H    -2.326000000    -5.627000000     0.292000000
O    -4.191000000    -2.537000000     2.551000000
H    -3.855000000    -1.704000000     2.881000000
H    -4.752000000    -2.864000000     3.254000000
O    -3.833000000     0.893000000    -4.714000000
H    -2.916000000     1.166000000    -4.691000000
H    -3.804000000    -0.056000000    -4.589000000
O     1.301000000     6.653000000     0.189000000
H     1.361000000     6.999000000     1.080000000
H     0.842000000     5.818000000     0.288000000
O    -4.890000000     0.040000000     1.242000000
H    -5.506000000    -0.681000000     1.373000000
H    -5.394000000     0.827000000     1.450000000
O    -1.135000000     5.120000000    -3.511000000
H    -2.005000000     4.727000000    -3.434000000
H    -0.551000000     4.493000000    -3.084000000
O     5.643000000    -3.699000000     0.132000000
H     4.841000000    -3.177000000     0.144000000
H     5.817000000    -3.892000000     1.053000000
O     4.046000000     1.528000000     1.671000000
H     4.290000000     2.317000000     1.188000000
H     3.156000000     1.701000000     1.978000000
O     2.887000000    -4.311000000     4.339000000
H     3.528000000    -3.658000000     4.059000000
H     3.364000000    -5.140000000     4.315000000
O    -3.098000000    -4.472000000    -2.734000000
H    -4.008000000    -4.765000000    -2.770000000
H    -2.725000000    -4.941000000    -1.988000000
O    -5.611000000     1.063000000    -2.180000000
H    -6.179000000     1.244000000    -1.431000000
H    -4.908000000     0.522000000    -1.821000000
O    -1.676000000    -6.378000000    -4.082000000
H    -1.075000000    -6.327000000    -3.339000000
H    -2.405000000    -5.808000000    -3.841000000
O    -1.932000000     6.480000000    -1.025000000
H    -2.058000000     7.376000000    -0.712000000
H    -2.124000000     6.523000000    -1.962000000
O     4.927000000     5.712000000     1.610000000
H     4.363000000     5.084000000     1.159000000
H     4.911000000     5.434000000     2.526000000
O    -2.971000000    -5.279000000     2.164000000
H    -3.881000000    -5.390000000     2.442000000
H    -2.805000000    -4.341000000     2.255000000
