144
-2801.09808
O    -5.931000000     4.288000000    -0.333000000
H    -6.385000000     3.464000000    -0.153000000
H    -5.017000000     4.112000000    -0.110000000
O    -6.033000000     1.737000000    -6.021000000
H    -5.533000000     1.884000000    -5.218000000
H    -6.179000000     2.614000000    -6.376000000
O     1.606000000     2.873000000     6.214000000
H     1.559000000     2.775000000     5.263000000
H     1.143000000     3.692000000     6.394000000
O    -0.171000000    -1.154000000    -4.120000000
H    -0.544000000    -1.231000000    -3.242000000
H    -0.410000000    -0.272000000    -4.405000000
O     4.419000000    -4.672000000    -1.386000000
H     5.228000000    -5.085000000    -1.085000000
H     4.628000000    -3.738000000    -1.428000000
O     2.110000000    -6.236000000    -2.046000000
H     2.414000000    -6.582000000    -2.885000000
H     2.690000000    -5.495000000    -1.868000000
O    -2.344000000    -2.567000000     1.971000000
H    -2.146000000    -1.671000000     1.697000000
H    -2.475000000    -2.504000000     2.918000000
O    -4.312000000    -3.184000000    -2.591000000
H    -3.955000000    -3.464000000    -1.748000000
H    -3.766000000    -2.440000000    -2.847000000
O     0.280000000     5.382000000    -1.256000000
H     0.094000000     4.538000000    -1.667000000
H    -0.574000000     5.809000000    -1.188000000
O    -1.477000000     4.819000000    -6.845000000
H    -1.758000000     4.478000000    -5.995000000
H    -0.553000000     5.035000000    -6.723000000
O    -4.645000000     0.502000000    -0.358000000
H    -3.902000000     0.631000000     0.232000000
H    -4.289000000    -0.014000000    -1.081000000
O    -0.903000000     6.403000000     1.528000000
H    -0.433000000     6.962000000     2.146000000
H    -1.264000000     7.011000000     0.882000000
O     4.150000000    -1.044000000     1.201000000
H     3.273000000    -0.774000000     0.928000000
H     4.654000000    -0.230000000     1.224000000
O     5.343000000    -2.428000000     5.283000000
H     5.911000000    -1.736000000     5.621000000
H     5.575000000    -2.497000000     4.357000000
O     1.969000000    -7.452000000     0.704000000
H     1.572000000    -7.063000000    -0.076000000
H     1.981000000    -6.743000000     1.346000000
O    -3.326000000    -0.909000000    -3.537000000
H    -3.394000000    -0.944000000    -4.491000000
H    -3.280000000     0.026000000    -3.334000000
O    -2.738000000     6.266000000    -1.194000000
H    -2.639000000     7.151000000    -0.844000000
H    -3.316000000     6.370000000    -1.950000000
O    -3.246000000    -3.865000000    -0.188000000
H    -2.920000000    -3.372000000     0.565000000
H    -3.327000000    -4.764000000     0.130000000
O     2.275000000    -5.800000000     3.714000000
H     2.935000000    -5.948000000     3.037000000
H     2.499000000    -4.945000000     4.083000000
O     4.267000000    -5.834000000     1.833000000
H     5.109000000    -5.416000000     2.014000000
H     4.267000000    -5.970000000     0.885000000
O    -2.382000000     0.606000000     1.441000000
H    -2.341000000     1.474000000     1.842000000
H    -1.568000000     0.533000000     0.944000000
O    -0.129000000     1.092000000    -6.163000000
H    -0.273000000     0.699000000    -7.024000000
H    -0.718000000     1.846000000    -6.142000000
O    -3.263000000    -4.844000000    -4.494000000
H    -3.564000000    -4.088000000    -3.991000000
H    -2.559000000    -5.219000000    -3.965000000
O     5.694000000    -3.037000000     2.433000000
H     4.887000000    -2.612000000     2.143000000
H     6.355000000    -2.751000000     1.803000000
O     1.466000000    -3.560000000    -2.296000000
H     0.526000000    -3.547000000    -2.116000000
H     1.588000000    -4.304000000    -2.886000000
O     2.791000000    -3.479000000     4.752000000
H     3.684000000    -3.237000000     4.998000000
H     2.269000000    -2.702000000     4.950000000
O    -1.727000000     4.556000000    -4.154000000
H    -2.669000000     4.445000000    -4.025000000
H    -1.327000000     4.067000000    -3.435000000
O    -0.807000000     7.221000000    -3.578000000
H    -0.860000000     6.265000000    -3.596000000
H    -1.714000000     7.513000000    -3.670000000
O    -1.413000000     0.197000000     4.124000000
H    -1.770000000     0.304000000     3.243000000
H    -1.908000000     0.817000000     4.660000000
O     2.267000000     6.653000000     0.064000000
H     1.501000000     6.145000000    -0.200000000
H     2.866000000     6.589000000    -0.680000000
O     1.290000000     4.878000000    -6.187000000
H     2.126000000     5.337000000    -6.259000000
H     1.388000000     4.320000000    -5.416000000
O     2.062000000    -0.937000000     5.133000000
H     1.255000000    -0.438000000     5.006000000
H     2.646000000    -0.334000000     5.594000000
O     1.733000000     3.402000000     3.236000000
H     2.540000000     3.821000000     2.939000000
H     1.147000000     3.448000000     2.480000000
O     5.623000000     1.190000000     0.931000000
H     6.180000000     1.950000000     1.095000000
H     5.159000000     1.404000000     0.121000000
O     4.321000000     1.319000000    -1.349000000
H     4.693000000     1.555000000    -2.199000000
H     3.683000000     0.635000000    -1.550000000
O     1.583000000     3.791000000    -3.483000000
H     1.784000000     4.653000000    -3.120000000
H     0.798000000     3.511000000    -3.013000000
O    -1.975000000     3.926000000     2.542000000
H    -2.393000000     3.796000000     1.691000000
H    -1.434000000     4.708000000     2.427000000
O    -2.223000000    -2.337000000     4.995000000
H    -1.555000000    -2.998000000     4.816000000
H    -1.770000000    -1.672000000     5.513000000
O    -1.118000000    -4.466000000    -1.736000000
H    -0.846000000    -5.371000000    -1.579000000
H    -1.899000000    -4.354000000    -1.195000000
O    -0.500000000    -5.667000000     1.800000000
H    -0.543000000    -4.915000000     1.210000000
H    -1.335000000    -6.118000000     1.675000000
O    -6.673000000    -1.776000000    -2.720000000
H    -6.674000000    -1.473000000    -3.628000000
H    -5.918000000    -2.362000000    -2.665000000
O    -2.777000000     3.807000000     0.034000000
H    -2.638000000     4.713000000    -0.241000000
H    -2.354000000     3.282000000    -0.645000000
O     2.302000000     1.282000000    -4.857000000
H     1.607000000     1.203000000    -5.511000000
H     2.062000000     2.055000000    -4.345000000
O    -4.414000000     3.004000000    -3.955000000
H    -3.827000000     2.428000000    -3.466000000
H    -4.420000000     3.820000000    -3.456000000
O     2.741000000    -1.231000000    -2.169000000
H     2.200000000    -2.020000000    -2.127000000
H     2.379000000    -0.731000000    -2.900000000
O    -0.139000000    -3.988000000     4.060000000
H    -0.044000000    -4.494000000     3.253000000
H     0.699000000    -4.096000000     4.510000000
O    -2.142000000    -5.671000000     5.093000000
H    -2.939000000    -5.773000000     4.572000000
H    -1.551000000    -5.169000000     4.531000000
O     5.223000000    -2.031000000    -1.107000000
H     4.940000000    -1.929000000    -0.198000000
H     4.434000000    -1.864000000    -1.623000000
