144
-2819.63370
O     0.207000000    -2.455000000     4.736000000
H     0.385000000    -1.625000000     5.178000000
H    -0.506000000    -2.847000000     5.240000000
O    -3.114000000     6.773000000    -2.632000000
H    -2.780000000     6.155000000    -3.283000000
H    -2.951000000     6.345000000    -1.791000000
O     3.136000000    -1.620000000     3.854000000
H     2.570000000    -0.869000000     3.677000000
H     3.342000000    -1.974000000     2.989000000
O     0.706000000    -1.528000000    -6.130000000
H     1.299000000    -0.786000000    -6.254000000
H     1.219000000    -2.163000000    -5.630000000
O     1.293000000     6.267000000    -0.662000000
H     1.315000000     5.311000000    -0.618000000
H     1.817000000     6.553000000     0.087000000
O    -0.099000000     6.250000000     5.621000000
H     0.709000000     5.753000000     5.491000000
H    -0.498000000     6.289000000     4.752000000
O     4.064000000    -3.090000000     1.278000000
H     4.678000000    -2.914000000     0.565000000
H     4.349000000    -3.930000000     1.638000000
O     0.434000000     0.134000000     5.556000000
H    -0.128000000     0.908000000     5.529000000
H     1.314000000     0.480000000     5.703000000
O    -1.580000000     6.136000000    -0.584000000
H    -1.308000000     5.350000000    -0.111000000
H    -0.828000000     6.725000000    -0.523000000
O    -1.365000000    -4.455000000     3.289000000
H    -0.736000000    -4.070000000     3.900000000
H    -2.007000000    -3.761000000     3.137000000
O    -1.031000000     3.712000000    -5.567000000
H    -1.037000000     2.830000000    -5.195000000
H    -0.515000000     4.229000000    -4.949000000
O     0.636000000    -6.263000000     1.786000000
H     1.431000000    -6.029000000     2.265000000
H    -0.064000000    -5.791000000     2.238000000
O    -1.618000000     1.077000000    -4.510000000
H    -1.831000000     0.325000000    -5.062000000
H    -0.693000000     0.959000000    -4.291000000
O     4.972000000    -2.073000000    -4.087000000
H     5.757000000    -1.741000000    -4.523000000
H     4.387000000    -1.317000000    -4.038000000
O    -4.937000000     1.267000000     2.444000000
H    -5.701000000     1.205000000     3.017000000
H    -4.208000000     0.955000000     2.981000000
O    -1.952000000    -2.816000000    -2.957000000
H    -2.354000000    -1.957000000    -2.832000000
H    -1.473000000    -2.977000000    -2.144000000
O     1.561000000     8.594000000    -2.060000000
H     1.352000000     7.771000000    -1.618000000
H     2.513000000     8.664000000    -2.000000000
O     3.638000000     3.813000000    -0.372000000
H     2.752000000     3.882000000    -0.726000000
H     3.693000000     2.918000000    -0.038000000
O    -3.370000000     5.072000000     4.210000000
H    -3.521000000     4.854000000     3.290000000
H    -3.923000000     5.837000000     4.368000000
O    -4.862000000     1.492000000    -0.502000000
H    -4.787000000     1.117000000     0.376000000
H    -5.765000000     1.312000000    -0.762000000
O    -2.217000000     8.506000000     0.374000000
H    -2.121000000     7.759000000    -0.218000000
H    -2.818000000     9.096000000    -0.082000000
O    -4.306000000     4.080000000     1.838000000
H    -3.492000000     4.066000000     1.334000000
H    -4.496000000     3.158000000     2.011000000
O    -2.366000000    -6.031000000    -3.205000000
H    -1.920000000    -6.250000000    -4.023000000
H    -1.661000000    -5.781000000    -2.608000000
O    -2.948000000    -3.653000000     0.188000000
H    -3.103000000    -3.857000000     1.110000000
H    -2.554000000    -4.449000000    -0.170000000
O    -4.361000000    -1.607000000    -0.605000000
H    -3.867000000    -0.911000000    -1.040000000
H    -3.693000000    -2.226000000    -0.311000000
O     4.924000000     0.800000000    -0.931000000
H     5.837000000     0.566000000    -0.765000000
H     4.591000000     1.087000000    -0.081000000
O     1.920000000    -4.287000000     3.218000000
H     1.361000000    -3.516000000     3.316000000
H     2.175000000    -4.282000000     2.295000000
O    -2.318000000    -0.317000000    -2.043000000
H    -1.401000000    -0.214000000    -1.788000000
H    -2.435000000     0.295000000    -2.769000000
O     0.896000000     6.463000000    -3.813000000
H     0.688000000     6.892000000    -4.643000000
H     0.972000000     7.181000000    -3.184000000
O    -0.802000000     5.847000000     2.551000000
H    -0.947000000     5.090000000     1.984000000
H    -1.545000000     6.425000000     2.374000000
O     4.557000000     1.281000000    -3.783000000
H     3.780000000     1.839000000    -3.783000000
H     4.591000000     0.917000000    -2.899000000
O     0.167000000     4.063000000    -2.952000000
H     0.517000000     4.914000000    -3.218000000
H     0.154000000     4.097000000    -1.996000000
O     4.244000000     4.289000000     2.344000000
H     3.621000000     4.942000000     2.663000000
H     4.257000000     4.413000000     1.395000000
O     5.099000000    -2.188000000    -1.345000000
H     4.924000000    -2.609000000    -2.186000000
H     4.778000000    -1.292000000    -1.454000000
O    -2.707000000     0.830000000     4.006000000
H    -2.075000000     1.414000000     3.585000000
H    -2.816000000     1.191000000     4.886000000
O    -1.255000000    -5.825000000    -0.685000000
H    -1.382000000    -6.659000000    -0.234000000
H    -0.327000000    -5.818000000    -0.920000000
O    -0.450000000     2.418000000     3.887000000
H    -0.743000000     3.055000000     4.538000000
H    -0.572000000     2.860000000     3.047000000
O    -3.095000000    -2.303000000     3.787000000
H    -3.935000000    -2.358000000     3.332000000
H    -2.937000000    -1.364000000     3.884000000
O     2.641000000     3.242000000    -3.540000000
H     2.765000000     3.538000000    -4.441000000
H     1.697000000     3.302000000    -3.396000000
O     2.332000000     5.914000000     3.132000000
H     2.623000000     5.946000000     4.043000000
H     1.438000000     6.255000000     3.153000000
O    -3.143000000     2.838000000    -1.925000000
H    -2.468000000     2.172000000    -2.058000000
H    -3.816000000     2.398000000    -1.407000000
O     3.018000000    -0.014000000    -5.824000000
H     3.749000000     0.459000000    -5.427000000
H     2.585000000     0.635000000    -6.379000000
O    -5.086000000    -2.728000000     2.319000000
H    -4.935000000    -2.300000000     1.476000000
H    -5.986000000    -2.495000000     2.548000000
O     1.283000000    -5.348000000    -4.068000000
H     2.070000000    -5.102000000    -4.555000000
H     1.412000000    -4.969000000    -3.198000000
O     1.565000000     0.496000000     2.869000000
H     1.049000000     0.310000000     2.085000000
H     0.926000000     0.505000000     3.581000000
O     1.891000000    -5.555000000    -0.979000000
H     2.788000000    -5.884000000    -1.038000000
H     1.582000000    -5.853000000    -0.124000000
O     3.493000000     1.705000000     1.317000000
H     2.906000000     1.089000000     1.757000000
H     3.661000000     2.384000000     1.969000000
O     5.951000000     4.232000000    -1.464000000
H     5.700000000     5.011000000    -1.960000000
H     5.152000000     3.971000000    -1.007000000
