144
-2787.36512
O    -3.654000000     0.005000000     6.081000000
H    -4.460000000    -0.019000000     5.566000000
H    -3.577000000     0.916000000     6.365000000
O     3.830000000    -6.090000000     4.008000000
H     4.615000000    -6.056000000     4.555000000
H     3.439000000    -5.221000000     4.096000000
O    -2.665000000     7.325000000     1.642000000
H    -2.435000000     8.242000000     1.786000000
H    -3.610000000     7.289000000     1.790000000
O    -3.807000000     2.962000000    -2.928000000
H    -3.020000000     2.795000000    -3.446000000
H    -3.603000000     3.755000000    -2.431000000
O     1.868000000     0.359000000     5.519000000
H     1.955000000     1.215000000     5.938000000
H     0.972000000     0.347000000     5.182000000
O     4.038000000    -5.231000000    -3.709000000
H     3.936000000    -4.340000000    -4.044000000
H     3.165000000    -5.473000000    -3.400000000
O     0.571000000    -3.589000000    -4.839000000
H     1.376000000    -3.162000000    -4.547000000
H     0.834000000    -4.488000000    -5.033000000
O     2.456000000     3.056000000    -0.311000000
H     1.552000000     3.233000000    -0.571000000
H     2.508000000     2.102000000    -0.259000000
O    -5.721000000     1.124000000    -2.481000000
H    -5.215000000     1.870000000    -2.803000000
H    -5.342000000     0.930000000    -1.624000000
O    -0.439000000     5.312000000     4.755000000
H     0.053000000     6.112000000     4.941000000
H    -0.584000000     5.334000000     3.810000000
O     2.802000000    -3.639000000     3.818000000
H     3.086000000    -3.003000000     3.162000000
H     2.668000000    -3.120000000     4.612000000
O    -3.112000000     5.183000000    -1.606000000
H    -3.472000000     4.840000000    -0.788000000
H    -2.180000000     4.970000000    -1.564000000
O    -0.120000000     7.923000000     0.056000000
H     0.487000000     7.901000000     0.796000000
H     0.016000000     8.784000000    -0.339000000
O     2.258000000     5.436000000     1.390000000
H     2.386000000     4.637000000     0.878000000
H     1.307000000     5.527000000     1.458000000
O    -2.961000000    -2.216000000     1.614000000
H    -2.193000000    -1.645000000     1.634000000
H    -3.149000000    -2.333000000     0.683000000
O    -4.251000000     3.011000000     3.815000000
H    -4.162000000     3.956000000     3.942000000
H    -5.011000000     2.918000000     3.239000000
O    -3.563000000    -3.943000000     3.638000000
H    -3.504000000    -3.552000000     4.510000000
H    -3.232000000    -3.266000000     3.049000000
O     2.548000000     3.970000000    -6.236000000
H     2.038000000     4.606000000    -6.737000000
H     2.057000000     3.858000000    -5.422000000
O    -1.739000000     1.953000000    -4.423000000
H    -1.148000000     2.701000000    -4.335000000
H    -1.615000000     1.655000000    -5.324000000
O    -5.153000000     0.034000000     1.835000000
H    -5.906000000     0.500000000     2.199000000
H    -5.484000000    -0.362000000     1.029000000
O    -1.429000000    -4.395000000    -2.507000000
H    -1.204000000    -4.854000000    -1.698000000
H    -0.693000000    -4.569000000    -3.094000000
O     0.921000000     5.808000000    -1.507000000
H     0.383000000     6.412000000    -0.993000000
H     0.760000000     4.951000000    -1.114000000
O     4.836000000     3.412000000    -1.893000000
H     4.129000000     3.227000000    -1.275000000
H     4.588000000     2.940000000    -2.688000000
O    -1.488000000     2.455000000     4.212000000
H    -1.111000000     2.846000000     3.424000000
H    -2.422000000     2.375000000     4.016000000
O    -2.621000000    -0.264000000    -2.384000000
H    -2.518000000     0.592000000    -1.968000000
H    -1.871000000    -0.335000000    -2.975000000
O    -5.444000000     6.310000000    -2.303000000
H    -4.526000000     6.058000000    -2.199000000
H    -5.677000000     6.712000000    -1.466000000
O    -3.797000000     1.578000000    -0.158000000
H    -3.251000000     2.327000000     0.081000000
H    -3.781000000     1.014000000     0.615000000
O    -6.153000000     3.046000000     0.365000000
H    -5.879000000     2.598000000    -0.436000000
H    -5.412000000     3.609000000     0.589000000
O     3.559000000    -5.753000000     1.196000000
H     2.801000000    -5.187000000     1.052000000
H     3.517000000    -5.976000000     2.126000000
O     4.328000000    -0.921000000    -2.340000000
H     5.263000000    -1.124000000    -2.327000000
H     4.075000000    -0.902000000    -1.417000000
O    -3.559000000    -2.761000000    -1.351000000
H    -2.835000000    -2.360000000    -1.832000000
H    -3.407000000    -3.703000000    -1.431000000
O     0.643000000     6.811000000    -4.340000000
H     0.738000000     7.757000000    -4.229000000
H     0.780000000     6.451000000    -3.464000000
O    -0.737000000     5.452000000     2.061000000
H    -0.880000000     4.726000000     1.454000000
H    -1.367000000     6.119000000     1.789000000
O     2.555000000    -2.163000000     6.097000000
H     3.033000000    -2.095000000     6.923000000
H     2.508000000    -1.263000000     5.772000000
O     3.855000000     1.710000000    -3.735000000
H     3.034000000     1.689000000    -4.225000000
H     3.885000000     0.868000000    -3.280000000
O     0.306000000     3.804000000    -3.851000000
H     0.471000000     4.716000000    -4.089000000
H    -0.008000000     3.844000000    -2.948000000
O     3.062000000    -2.809000000    -4.455000000
H     3.484000000    -2.682000000    -5.305000000
H     3.537000000    -2.227000000    -3.862000000
O    -0.826000000    -0.015000000     5.283000000
H    -1.706000000    -0.338000000     5.478000000
H    -0.970000000     0.837000000     4.870000000
O    -2.591000000    -2.674000000    -4.199000000
H    -1.949000000    -2.131000000    -4.657000000
H    -2.065000000    -3.298000000    -3.700000000
O     1.368000000     1.446000000    -4.673000000
H     0.671000000     0.792000000    -4.623000000
H     0.984000000     2.236000000    -4.293000000
O     1.586000000    -6.329000000    -2.831000000
H     1.420000000    -6.164000000    -1.903000000
H     0.983000000    -7.037000000    -3.060000000
O    -4.155000000     4.703000000     1.324000000
H    -4.226000000     5.656000000     1.263000000
H    -3.215000000     4.538000000     1.399000000
O    -0.409000000    -0.685000000    -5.148000000
H    -0.623000000    -0.077000000    -5.855000000
H    -0.276000000    -1.525000000    -5.588000000
O    -0.305000000    -6.964000000    -0.765000000
H    -1.095000000    -6.836000000    -0.240000000
H     0.256000000    -7.519000000    -0.222000000
O     2.400000000    -0.280000000     2.861000000
H     1.637000000     0.122000000     2.445000000
H     2.458000000     0.146000000     3.716000000
O    -1.976000000    -5.824000000     1.175000000
H    -2.763000000    -5.348000000     1.438000000
H    -1.953000000    -6.587000000     1.753000000
O     4.090000000     0.728000000    -0.089000000
H     3.895000000     0.694000000     0.847000000
H     4.872000000     1.277000000    -0.151000000
O     3.758000000     7.199000000    -0.704000000
H     3.504000000     8.092000000    -0.470000000
H     3.396000000     6.656000000    -0.004000000
