144
-2816.18368
O     0.641000000     6.676000000     3.234000000
H     0.150000000     6.267000000     3.946000000
H     0.176000000     6.412000000     2.440000000
O    -3.099000000     6.059000000     2.645000000
H    -3.978000000     5.685000000     2.707000000
H    -2.512000000     5.308000000     2.732000000
O    -1.706000000     8.051000000    -2.072000000
H    -1.241000000     8.439000000    -1.331000000
H    -1.487000000     7.120000000    -2.030000000
O     3.095000000     5.353000000    -0.107000000
H     2.361000000     4.752000000    -0.233000000
H     3.363000000     5.217000000     0.802000000
O     3.252000000    -2.976000000     1.436000000
H     3.808000000    -2.214000000     1.598000000
H     3.749000000    -3.508000000     0.815000000
O     2.560000000     0.219000000     4.177000000
H     1.871000000     0.497000000     4.780000000
H     3.234000000     0.895000000     4.255000000
O     0.035000000     6.311000000     0.679000000
H    -0.112000000     5.386000000     0.482000000
H     0.646000000     6.605000000     0.003000000
O     2.965000000    -3.916000000    -3.348000000
H     3.477000000    -4.721000000    -3.429000000
H     3.552000000    -3.227000000    -3.660000000
O     0.339000000    -5.669000000     1.971000000
H     0.108000000    -4.827000000     2.364000000
H     0.284000000    -5.515000000     1.028000000
O    -0.862000000     2.789000000    -4.943000000
H    -1.566000000     2.402000000    -5.463000000
H    -0.298000000     2.050000000    -4.715000000
O     2.999000000    -7.517000000    -1.331000000
H     2.250000000    -8.064000000    -1.566000000
H     2.675000000    -6.956000000    -0.626000000
O     2.575000000    -7.244000000     1.648000000
H     1.855000000    -6.645000000     1.844000000
H     2.160000000    -8.104000000     1.579000000
O    -2.733000000     2.386000000    -2.911000000
H    -3.423000000     2.658000000    -3.516000000
H    -2.044000000     3.041000000    -3.024000000
O     1.925000000     0.507000000    -5.270000000
H     1.817000000    -0.403000000    -4.994000000
H     2.666000000     0.828000000    -4.757000000
O    -3.458000000     1.748000000     3.064000000
H    -3.908000000     1.517000000     2.251000000
H    -4.136000000     1.694000000     3.737000000
O    -4.689000000    -1.345000000     0.985000000
H    -5.601000000    -1.564000000     0.795000000
H    -4.181000000    -2.024000000     0.539000000
O    -1.122000000    -0.582000000    -4.285000000
H    -1.558000000    -0.934000000    -3.509000000
H    -0.238000000    -0.946000000    -4.249000000
O     1.822000000     7.797000000    -1.058000000
H     2.492000000     7.115000000    -1.025000000
H     2.145000000     8.479000000    -0.469000000
O    -1.736000000    -0.941000000     4.440000000
H    -1.462000000    -0.780000000     5.343000000
H    -1.884000000    -0.069000000     4.075000000
O     4.698000000     3.643000000     2.015000000
H     4.744000000     3.098000000     1.230000000
H     4.414000000     3.043000000     2.706000000
O     5.050000000     5.650000000    -2.176000000
H     4.958000000     5.314000000    -3.067000000
H     4.414000000     5.150000000    -1.664000000
O    -4.007000000    -4.942000000    -0.349000000
H    -4.595000000    -5.404000000    -0.947000000
H    -3.972000000    -4.048000000    -0.691000000
O    -1.095000000     5.101000000     5.252000000
H    -1.325000000     4.469000000     4.572000000
H    -1.757000000     5.789000000     5.174000000
O    -4.434000000     1.192000000     0.262000000
H    -4.566000000     0.258000000     0.422000000
H    -5.285000000     1.506000000    -0.043000000
O    -1.882000000     5.306000000    -1.957000000
H    -1.017000000     4.985000000    -1.700000000
H    -2.496000000     4.754000000    -1.472000000
O    -1.820000000     3.809000000     3.001000000
H    -1.240000000     3.936000000     2.250000000
H    -2.342000000     3.039000000     2.774000000
O    -3.618000000    -4.238000000    -4.231000000
H    -3.417000000    -5.067000000    -3.798000000
H    -3.092000000    -4.252000000    -5.031000000
O    -4.086000000    -2.751000000    -1.989000000
H    -3.434000000    -2.053000000    -1.918000000
H    -4.030000000    -3.040000000    -2.900000000
O     4.764000000     1.888000000    -0.116000000
H     5.557000000     1.357000000    -0.184000000
H     4.051000000     1.281000000    -0.313000000
O     1.192000000    -2.113000000    -4.705000000
H     0.855000000    -2.570000000    -5.476000000
H     1.848000000    -2.708000000    -4.342000000
O    -2.455000000    -0.565000000    -1.822000000
H    -2.226000000    -0.523000000    -0.894000000
H    -2.397000000     0.342000000    -2.125000000
O     2.169000000     6.198000000    -4.153000000
H     2.718000000     6.845000000    -3.709000000
H     1.334000000     6.646000000    -4.290000000
O     1.718000000     4.205000000     2.603000000
H     1.109000000     3.707000000     2.058000000
H     1.167000000     4.837000000     3.064000000
O     4.983000000     2.384000000    -2.973000000
H     4.147000000     2.792000000    -2.744000000
H     5.428000000     2.265000000    -2.134000000
O     2.412000000     3.495000000    -2.913000000
H     2.237000000     4.292000000    -3.413000000
H     1.766000000     3.508000000    -2.207000000
O     4.042000000    -1.888000000    -4.803000000
H     4.888000000    -1.527000000    -4.536000000
H     4.000000000    -1.726000000    -5.745000000
O     2.048000000    -2.632000000     3.878000000
H     2.270000000    -1.724000000     4.085000000
H     2.476000000    -2.797000000     3.038000000
O    -1.531000000    -5.803000000    -1.022000000
H    -1.695000000    -6.258000000    -1.848000000
H    -2.402000000    -5.593000000    -0.687000000
O    -0.408000000    -3.323000000     3.570000000
H    -0.861000000    -2.522000000     3.832000000
H     0.521000000    -3.093000000     3.595000000
O     4.576000000    -4.483000000    -0.545000000
H     3.645000000    -4.603000000    -0.732000000
H     4.861000000    -3.811000000    -1.165000000
O     3.456000000     4.039000000     4.744000000
H     3.854000000     4.891000000     4.922000000
H     3.026000000     4.147000000     3.895000000
O    -4.201000000    -1.939000000     5.043000000
H    -4.639000000    -1.169000000     4.681000000
H    -3.282000000    -1.828000000     4.800000000
O    -2.950000000     3.635000000    -0.012000000
H    -2.059000000     3.560000000     0.329000000
H    -3.380000000     2.825000000     0.263000000
O    -4.789000000    -5.975000000     2.270000000
H    -4.418000000    -5.998000000     1.388000000
H    -5.312000000    -5.173000000     2.289000000
O     0.823000000    -5.551000000    -3.576000000
H     0.058000000    -5.212000000    -4.042000000
H     1.259000000    -4.771000000    -3.233000000
O     3.007000000    -0.103000000     1.072000000
H     2.239000000    -0.354000000     0.560000000
H     2.661000000     0.472000000     1.755000000
O     1.094000000    -5.729000000    -0.724000000
H     0.155000000    -5.548000000    -0.754000000
H     1.312000000    -6.006000000    -1.614000000
O    -1.214000000     1.604000000     5.365000000
H    -0.305000000     1.648000000     5.662000000
H    -1.487000000     2.518000000     5.290000000
