144
-2798.93856
O    -0.425000000     5.631000000    -1.928000000
H    -1.011000000     5.706000000    -1.175000000
H    -0.110000000     6.522000000    -2.076000000
O    -2.357000000    -3.279000000    -4.436000000
H    -2.765000000    -3.389000000    -5.295000000
H    -2.718000000    -2.457000000    -4.104000000
O     3.924000000     2.673000000    -2.954000000
H     4.083000000     3.561000000    -2.635000000
H     3.896000000     2.135000000    -2.163000000
O     3.241000000    -0.881000000    -6.437000000
H     3.100000000    -1.375000000    -5.629000000
H     4.059000000    -1.228000000    -6.791000000
O     2.953000000     4.030000000     3.156000000
H     2.349000000     3.747000000     2.469000000
H     2.582000000     4.852000000     3.477000000
O    -0.122000000     5.467000000     2.375000000
H     0.402000000     4.682000000     2.211000000
H     0.238000000     5.831000000     3.183000000
O    -1.109000000    -5.204000000     3.459000000
H    -1.767000000    -5.241000000     4.153000000
H    -1.195000000    -4.324000000     3.094000000
O     4.820000000     4.672000000     0.679000000
H     4.524000000     4.439000000     1.558000000
H     4.058000000     4.519000000     0.120000000
O    -1.507000000    -6.449000000    -1.087000000
H    -2.158000000    -5.920000000    -1.549000000
H    -1.955000000    -6.739000000    -0.293000000
O    -3.330000000    -4.577000000    -2.209000000
H    -4.184000000    -4.824000000    -2.563000000
H    -2.951000000    -4.004000000    -2.875000000
O     2.240000000    -4.508000000    -3.380000000
H     2.139000000    -5.451000000    -3.509000000
H     1.996000000    -4.364000000    -2.466000000
O     2.900000000    -4.176000000     2.266000000
H     2.733000000    -4.357000000     3.191000000
H     2.583000000    -3.282000000     2.136000000
O    -2.040000000     5.384000000     0.012000000
H    -2.973000000     5.455000000     0.213000000
H    -1.612000000     5.356000000     0.867000000
O    -4.862000000    -1.647000000    -3.192000000
H    -5.252000000    -1.528000000    -2.326000000
H    -5.605000000    -1.623000000    -3.795000000
O    -3.537000000     2.176000000     2.091000000
H    -2.596000000     2.293000000     1.957000000
H    -3.608000000     1.775000000     2.956000000
O     0.038000000    -3.721000000    -5.476000000
H     0.604000000    -3.733000000    -4.704000000
H    -0.842000000    -3.586000000    -5.124000000
O    -6.431000000    -0.265000000     2.305000000
H    -7.226000000    -0.568000000     1.868000000
H    -5.867000000     0.039000000     1.594000000
O     0.679000000    -0.305000000     5.507000000
H     0.208000000     0.425000000     5.106000000
H     0.901000000     0.006000000     6.385000000
O     4.387000000     1.687000000    -0.244000000
H     4.715000000     1.556000000     0.645000000
H     3.541000000     2.120000000    -0.127000000
O    -4.626000000    -5.712000000     0.000000000
H    -4.015000000    -5.326000000    -0.627000000
H    -5.454000000    -5.768000000    -0.476000000
O    -0.082000000     3.071000000    -2.827000000
H    -0.141000000     3.963000000    -2.484000000
H    -0.495000000     2.528000000    -2.156000000
O     0.995000000    -7.037000000    -0.245000000
H     0.804000000    -7.972000000    -0.162000000
H     0.135000000    -6.621000000    -0.305000000
O    -5.057000000     0.915000000     0.205000000
H    -5.790000000     1.462000000    -0.079000000
H    -4.553000000     1.477000000     0.794000000
O     1.086000000     7.513000000     0.573000000
H     0.795000000     6.927000000     1.272000000
H     1.564000000     6.945000000    -0.032000000
O     5.103000000     1.546000000     2.373000000
H     5.883000000     1.559000000     2.927000000
H     4.371000000     1.592000000     2.988000000
O     1.863000000    -1.430000000     1.909000000
H     1.478000000    -0.842000000     1.259000000
H     2.321000000    -0.849000000     2.516000000
O    -3.102000000     1.618000000    -1.450000000
H    -3.122000000     1.236000000    -2.328000000
H    -3.799000000     1.165000000    -0.976000000
O     1.774000000     2.597000000    -4.839000000
H     2.560000000     2.614000000    -4.292000000
H     1.079000000     2.928000000    -4.270000000
O     1.987000000     6.383000000     4.158000000
H     1.235000000     6.542000000     4.729000000
H     2.739000000     6.375000000     4.749000000
O     6.131000000    -0.378000000    -1.107000000
H     5.886000000     0.538000000    -0.979000000
H     5.498000000    -0.871000000    -0.585000000
O     5.251000000     1.558000000    -5.294000000
H     5.422000000     0.739000000    -4.829000000
H     4.619000000     2.019000000    -4.743000000
O    -3.395000000     1.260000000     4.650000000
H    -2.495000000     1.268000000     4.976000000
H    -3.935000000     1.340000000     5.436000000
O     2.473000000     5.262000000    -1.112000000
H     1.582000000     5.425000000    -1.420000000
H     2.398000000     4.477000000    -0.568000000
O    -3.205000000     0.409000000    -4.102000000
H    -2.295000000     0.113000000    -4.123000000
H    -3.673000000    -0.288000000    -3.643000000
O     2.915000000     3.082000000     5.698000000
H     3.792000000     3.176000000     6.071000000
H     3.001000000     3.405000000     4.801000000
O    -0.464000000    -2.411000000     3.560000000
H    -0.045000000    -2.070000000     2.770000000
H    -0.083000000    -1.899000000     4.273000000
O    -0.334000000    -0.336000000    -4.425000000
H    -0.102000000     0.493000000    -4.843000000
H     0.505000000    -0.715000000    -4.161000000
O     4.544000000    -2.419000000     0.004000000
H     5.065000000    -3.086000000    -0.442000000
H     3.650000000    -2.758000000    -0.019000000
O    -5.071000000    -4.354000000     2.323000000
H    -4.687000000    -4.752000000     1.541000000
H    -6.012000000    -4.338000000     2.146000000
O    -2.652000000     4.370000000     4.439000000
H    -1.781000000     4.748000000     4.311000000
H    -2.676000000     4.134000000     5.366000000
O    -5.125000000    -1.997000000     4.104000000
H    -4.734000000    -2.690000000     3.572000000
H    -5.182000000    -1.245000000     3.515000000
O     3.675000000     7.325000000    -2.701000000
H     3.305000000     6.677000000    -2.102000000
H     4.036000000     6.807000000    -3.421000000
O     3.509000000    -2.347000000    -4.203000000
H     4.400000000    -2.253000000    -3.865000000
H     3.186000000    -3.155000000    -3.803000000
O     2.746000000     0.666000000     3.687000000
H     3.074000000     0.338000000     4.524000000
H     1.901000000     1.062000000     3.900000000
O     0.133000000    -6.731000000    -3.262000000
H    -0.655000000    -7.274000000    -3.272000000
H     0.106000000    -6.284000000    -2.417000000
O     2.228000000    -4.440000000    -0.378000000
H     1.819000000    -5.294000000    -0.241000000
H     2.520000000    -4.171000000     0.493000000
O    -6.149000000    -1.273000000    -0.666000000
H    -5.533000000    -0.598000000    -0.382000000
H    -6.823000000    -0.795000000    -1.148000000
O     0.240000000     2.281000000     4.230000000
H     0.902000000     2.665000000     4.806000000
H     0.318000000     2.776000000     3.414000000
