144
-2818.44284
O    -4.262000000    -2.906000000     3.357000000
H    -4.495000000    -2.457000000     2.544000000
H    -3.656000000    -2.309000000     3.796000000
O     2.319000000     7.712000000     0.056000000
H     1.887000000     7.093000000     0.645000000
H     1.838000000     7.635000000    -0.768000000
O     4.294000000     6.240000000    -2.329000000
H     4.120000000     6.105000000    -1.397000000
H     5.139000000     5.816000000    -2.479000000
O    -2.371000000    -5.159000000     2.609000000
H    -3.049000000    -4.526000000     2.847000000
H    -2.027000000    -5.467000000     3.447000000
O     4.616000000    -2.156000000    -5.556000000
H     4.372000000    -1.490000000    -6.199000000
H     4.658000000    -1.683000000    -4.725000000
O     1.422000000    -3.533000000    -4.285000000
H     1.824000000    -4.372000000    -4.056000000
H     1.948000000    -2.882000000    -3.820000000
O     3.447000000    -4.833000000    -0.749000000
H     4.115000000    -4.345000000    -1.230000000
H     3.164000000    -5.516000000    -1.358000000
O     0.974000000     5.402000000     1.099000000
H     1.479000000     4.592000000     1.020000000
H     0.153000000     5.133000000     1.512000000
O     1.486000000    -2.861000000     1.863000000
H     1.048000000    -2.376000000     1.164000000
H     1.211000000    -3.768000000     1.734000000
O     0.102000000     2.814000000     3.910000000
H    -0.523000000     2.148000000     4.198000000
H    -0.040000000     3.549000000     4.506000000
O    -3.458000000    -2.213000000    -5.412000000
H    -2.605000000    -2.577000000    -5.650000000
H    -3.254000000    -1.509000000    -4.797000000
O     4.104000000    -1.381000000     1.763000000
H     4.290000000    -1.101000000     2.659000000
H     3.318000000    -1.922000000     1.839000000
O    -6.128000000    -1.324000000    -1.162000000
H    -5.607000000    -2.024000000    -1.557000000
H    -6.847000000    -1.184000000    -1.778000000
O     2.427000000    -0.382000000     4.619000000
H     3.277000000    -0.634000000     4.982000000
H     2.610000000     0.407000000     4.108000000
O     7.060000000     1.398000000    -2.166000000
H     7.320000000     1.893000000    -2.943000000
H     6.958000000     2.060000000    -1.483000000
O     4.612000000     3.618000000     4.324000000
H     4.007000000     3.045000000     3.853000000
H     4.588000000     4.442000000     3.838000000
O     0.213000000     3.059000000    -2.439000000
H    -0.434000000     2.590000000    -2.967000000
H     1.051000000     2.666000000    -2.681000000
O    -2.503000000    -4.788000000    -3.365000000
H    -2.335000000    -4.375000000    -4.213000000
H    -3.247000000    -5.369000000    -3.525000000
O    -0.827000000    -3.064000000    -5.636000000
H    -0.048000000    -3.369000000    -5.171000000
H    -0.528000000    -2.302000000    -6.131000000
O    -3.757000000     4.140000000     3.103000000
H    -4.146000000     4.213000000     3.975000000
H    -4.281000000     3.471000000     2.663000000
O    -2.399000000     2.566000000    -0.673000000
H    -1.682000000     2.078000000    -0.267000000
H    -3.028000000     1.894000000    -0.935000000
O     0.251000000    -2.116000000     4.444000000
H     0.540000000    -2.518000000     3.625000000
H     0.878000000    -1.409000000     4.598000000
O     5.451000000    -0.485000000    -3.417000000
H     5.966000000     0.292000000    -3.198000000
H     5.170000000    -0.832000000    -2.570000000
O    -2.051000000    -7.847000000    -1.644000000
H    -2.896000000    -8.295000000    -1.615000000
H    -2.238000000    -6.962000000    -1.331000000
O    -5.625000000    -1.432000000     1.591000000
H    -5.981000000    -1.244000000     0.723000000
H    -5.948000000    -2.308000000     1.799000000
O     1.652000000     5.775000000    -3.694000000
H     2.565000000     5.698000000    -3.417000000
H     1.152000000     5.367000000    -2.988000000
O     5.115000000     3.245000000    -5.474000000
H     4.411000000     3.257000000    -6.122000000
H     4.701000000     2.914000000    -4.677000000
O     4.707000000    -0.552000000    -0.788000000
H     4.315000000     0.298000000    -0.988000000
H     4.504000000    -0.698000000     0.136000000
O    -4.943000000     0.014000000     4.591000000
H    -4.051000000    -0.164000000     4.294000000
H    -4.977000000    -0.350000000     5.476000000
O     3.228000000     5.774000000     3.029000000
H     2.509000000     5.619000000     2.417000000
H     3.598000000     6.614000000     2.755000000
O     0.116000000    -5.048000000    -1.883000000
H     0.729000000    -5.649000000    -2.307000000
H    -0.731000000    -5.250000000    -2.279000000
O    -5.245000000     1.752000000     1.818000000
H    -5.535000000     1.449000000     0.958000000
H    -4.901000000     0.967000000     2.244000000
O     3.941000000     5.151000000     0.160000000
H     4.481000000     5.189000000     0.950000000
H     3.330000000     4.433000000     0.322000000
O    -1.758000000     4.854000000     0.772000000
H    -2.290000000     4.755000000     1.561000000
H    -2.037000000     4.137000000     0.203000000
O     2.092000000     1.786000000    -4.560000000
H     2.766000000     2.180000000    -4.008000000
H     2.553000000     1.537000000    -5.361000000
O    -3.001000000    -5.341000000    -0.456000000
H    -2.731000000    -4.587000000    -0.979000000
H    -2.689000000    -5.144000000     0.427000000
O     2.769000000     1.917000000     3.064000000
H     2.562000000     2.217000000     2.179000000
H     1.975000000     2.093000000     3.568000000
O     0.279000000    -5.329000000     0.923000000
H    -0.658000000    -5.525000000     0.962000000
H     0.436000000    -5.091000000     0.010000000
O     0.006000000     5.755000000    -1.374000000
H    -0.134000000     4.822000000    -1.539000000
H     0.230000000     5.803000000    -0.444000000
O     6.163000000     1.598000000     0.382000000
H     6.367000000     0.782000000    -0.075000000
H     5.214000000     1.574000000     0.502000000
O     7.793000000     3.726000000    -0.046000000
H     7.594000000     4.540000000     0.416000000
H     7.264000000     3.063000000     0.399000000
O    -3.078000000    -0.822000000    -3.252000000
H    -3.645000000    -0.188000000    -2.813000000
H    -2.330000000    -0.921000000    -2.663000000
O    -4.777000000     3.900000000    -0.511000000
H    -5.167000000     3.299000000     0.124000000
H    -3.883000000     3.578000000    -0.628000000
O    -4.648000000     0.813000000    -1.443000000
H    -5.392000000     1.402000000    -1.316000000
H    -5.023000000    -0.065000000    -1.375000000
O     4.064000000     2.884000000    -3.039000000
H     4.788000000     3.500000000    -2.922000000
H     3.766000000     2.694000000    -2.150000000
O    -1.398000000     1.311000000     5.592000000
H    -0.838000000     1.093000000     6.337000000
H    -1.828000000     2.127000000     5.847000000
O    -2.256000000    -0.579000000     3.733000000
H    -2.149000000     0.035000000     4.460000000
H    -1.371000000    -0.898000000     3.557000000
O     5.687000000    -3.129000000    -1.123000000
H     5.086000000    -2.453000000    -0.809000000
H     6.551000000    -2.720000000    -1.079000000
