144
-2815.54103
O    -1.170000000    -3.845000000    -1.912000000
H    -1.476000000    -3.637000000    -2.795000000
H    -1.625000000    -3.220000000    -1.348000000
O    -6.025000000     0.734000000     3.480000000
H    -6.192000000     1.668000000     3.358000000
H    -6.304000000     0.331000000     2.658000000
O    -4.329000000    -3.014000000     2.206000000
H    -3.709000000    -3.145000000     2.923000000
H    -5.012000000    -3.667000000     2.359000000
O     0.587000000     5.093000000     0.447000000
H     0.933000000     4.682000000    -0.345000000
H    -0.331000000     4.824000000     0.475000000
O    -1.513000000    -6.519000000     2.358000000
H    -2.065000000    -7.285000000     2.514000000
H    -1.345000000    -6.531000000     1.416000000
O     1.146000000     7.641000000     1.104000000
H     0.487000000     7.818000000     1.776000000
H     0.994000000     6.729000000     0.855000000
O     5.561000000    -0.971000000    -1.336000000
H     4.816000000    -1.476000000    -1.662000000
H     5.771000000    -1.372000000    -0.492000000
O     4.490000000     2.074000000     2.084000000
H     3.535000000     2.117000000     2.135000000
H     4.665000000     1.348000000     1.485000000
O     1.588000000     6.732000000    -2.461000000
H     2.298000000     6.195000000    -2.110000000
H     1.180000000     6.183000000    -3.130000000
O    -3.218000000    -2.131000000    -1.430000000
H    -3.380000000    -1.406000000    -0.827000000
H    -3.327000000    -1.747000000    -2.300000000
O    -2.333000000     3.666000000    -1.766000000
H    -2.330000000     3.102000000    -2.540000000
H    -1.407000000     3.808000000    -1.569000000
O     4.452000000    -1.974000000     1.952000000
H     4.374000000    -2.828000000     1.528000000
H     3.561000000    -1.764000000     2.233000000
O     1.981000000     2.819000000     2.214000000
H     1.831000000     2.952000000     3.150000000
H     1.969000000     3.701000000     1.842000000
O    -6.379000000    -4.657000000     0.508000000
H    -6.799000000    -5.509000000     0.388000000
H    -5.578000000    -4.710000000    -0.012000000
O     0.763000000    -3.816000000     3.667000000
H     1.269000000    -4.183000000     2.943000000
H     0.015000000    -4.407000000     3.760000000
O     3.786000000    -2.622000000    -3.225000000
H     3.220000000    -3.265000000    -2.798000000
H     3.599000000    -2.721000000    -4.159000000
O     0.142000000    -3.822000000    -5.000000000
H     0.540000000    -3.761000000    -5.868000000
H     0.721000000    -4.408000000    -4.512000000
O     1.546000000    -5.232000000     1.403000000
H     0.788000000    -5.473000000     0.870000000
H     1.976000000    -6.065000000     1.597000000
O    -2.044000000     6.337000000     1.178000000
H    -2.850000000     6.451000000     1.681000000
H    -1.542000000     5.689000000     1.672000000
O     3.717000000     0.932000000    -3.836000000
H     3.161000000     1.043000000    -3.065000000
H     3.766000000     1.805000000    -4.224000000
O    -0.253000000     0.443000000     6.243000000
H     0.273000000    -0.236000000     5.821000000
H    -1.158000000     0.168000000     6.099000000
O     1.960000000    -4.702000000    -1.828000000
H     2.006000000    -5.453000000    -2.420000000
H     1.024000000    -4.584000000    -1.663000000
O    -3.447000000     0.946000000    -2.261000000
H    -2.780000000     0.456000000    -1.780000000
H    -2.960000000     1.412000000    -2.940000000
O    -1.603000000     7.812000000    -1.288000000
H    -1.505000000     7.262000000    -0.510000000
H    -1.307000000     8.678000000    -1.008000000
O     6.956000000    -0.789000000    -3.498000000
H     7.422000000    -1.619000000    -3.594000000
H     6.426000000    -0.902000000    -2.709000000
O     1.008000000    -1.007000000     4.592000000
H     1.389000000    -0.588000000     3.820000000
H     1.058000000    -1.945000000     4.405000000
O    -3.523000000    -4.851000000    -0.670000000
H    -3.781000000    -4.046000000    -1.120000000
H    -2.954000000    -4.556000000     0.041000000
O     4.597000000     4.764000000    -4.567000000
H     5.157000000     4.038000000    -4.291000000
H     4.194000000     5.078000000    -3.757000000
O     3.862000000     5.539000000     1.220000000
H     3.347000000     5.735000000     2.003000000
H     4.771000000     5.559000000     1.519000000
O    -0.618000000    -5.835000000    -0.250000000
H    -0.767000000    -5.119000000    -0.868000000
H    -0.663000000    -6.627000000    -0.785000000
O     3.508000000     5.001000000    -1.880000000
H     3.357000000     5.108000000    -0.941000000
H     3.076000000     4.176000000    -2.100000000
O    -4.900000000     4.317000000     3.194000000
H    -5.628000000     4.386000000     2.577000000
H    -4.220000000     3.848000000     2.711000000
O     6.032000000     3.894000000    -2.031000000
H     5.257000000     4.452000000    -1.969000000
H     5.735000000     3.037000000    -1.723000000
O    -3.640000000     2.465000000     0.426000000
H    -3.868000000     1.676000000    -0.066000000
H    -3.452000000     3.120000000    -0.246000000
O     4.469000000    -0.076000000    -6.290000000
H     5.014000000     0.709000000    -6.341000000
H     4.494000000    -0.325000000    -5.366000000
O     2.232000000    -0.284000000     2.276000000
H     1.618000000    -0.251000000     1.542000000
H     2.656000000     0.574000000     2.272000000
O     4.281000000    -4.343000000     0.684000000
H     4.555000000    -4.674000000    -0.171000000
H     3.345000000    -4.537000000     0.729000000
O    -2.184000000    -1.297000000     5.123000000
H    -2.503000000    -1.983000000     5.710000000
H    -1.713000000    -1.770000000     4.436000000
O    -3.694000000    -7.457000000     0.397000000
H    -3.381000000    -6.627000000     0.038000000
H    -4.382000000    -7.206000000     1.015000000
O    -2.161000000     2.225000000    -4.251000000
H    -2.287000000     3.080000000    -4.663000000
H    -1.775000000     1.682000000    -4.940000000
O     0.138000000     4.841000000    -4.096000000
H     0.251000000     4.126000000    -4.723000000
H     0.159000000     4.414000000    -3.240000000
O    -4.108000000    -0.508000000     0.792000000
H    -5.039000000    -0.284000000     0.806000000
H    -4.014000000    -1.182000000     1.465000000
O    -3.226000000     6.094000000    -2.802000000
H    -2.634000000     6.537000000    -2.194000000
H    -3.087000000     5.162000000    -2.635000000
O    -3.118000000     1.768000000     3.123000000
H    -2.975000000     1.929000000     2.190000000
H    -3.727000000     1.030000000     3.148000000
O     5.055000000     1.719000000    -0.859000000
H     4.979000000     0.807000000    -1.142000000
H     4.155000000     1.987000000    -0.673000000
O    -2.308000000    -4.120000000     3.913000000
H    -2.763000000    -4.469000000     4.678000000
H    -2.106000000    -4.890000000     3.382000000
O    -1.733000000     2.892000000     4.996000000
H    -2.200000000     2.246000000     4.466000000
H    -1.211000000     2.370000000     5.605000000
O    -1.198000000     3.895000000     2.429000000
H    -1.498000000     3.491000000     3.244000000
H    -0.510000000     3.310000000     2.111000000
