144
-2833.38919
O    -2.479000000    -5.092000000    -2.901000000
H    -2.025000000    -4.365000000    -3.327000000
H    -3.204000000    -5.299000000    -3.489000000
O    -1.897000000    -7.483000000    -1.724000000
H    -2.319000000    -6.682000000    -2.035000000
H    -1.033000000    -7.474000000    -2.136000000
O    -6.674000000     2.350000000     2.340000000
H    -7.333000000     2.228000000     1.657000000
H    -5.847000000     2.421000000     1.864000000
O    -1.196000000     3.846000000     3.420000000
H    -0.863000000     3.795000000     2.525000000
H    -2.041000000     3.397000000     3.387000000
O    -3.124000000    -4.759000000    -0.167000000
H    -3.539000000    -4.045000000    -0.652000000
H    -2.423000000    -5.064000000    -0.742000000
O     4.339000000     1.235000000    -0.194000000
H     4.315000000     0.340000000     0.144000000
H     4.829000000     1.727000000     0.465000000
O    -0.237000000     6.638000000     0.206000000
H     0.176000000     6.444000000    -0.636000000
H    -0.155000000     5.826000000     0.706000000
O    -4.506000000    -2.393000000    -1.315000000
H    -5.330000000    -2.556000000    -1.773000000
H    -4.648000000    -1.566000000    -0.854000000
O    -2.518000000     4.688000000     0.572000000
H    -2.513000000     5.232000000    -0.215000000
H    -1.643000000     4.302000000     0.603000000
O     1.720000000     1.042000000     2.715000000
H     2.190000000     0.262000000     2.420000000
H     0.891000000     1.017000000     2.236000000
O     3.617000000     6.298000000     3.915000000
H     2.850000000     5.831000000     3.584000000
H     3.710000000     5.997000000     4.819000000
O     1.388000000     8.103000000     1.906000000
H     0.889000000     7.695000000     1.199000000
H     1.470000000     7.417000000     2.569000000
O     0.240000000    -0.345000000    -4.259000000
H    -0.236000000    -0.957000000    -3.698000000
H     1.159000000    -0.595000000    -4.160000000
O    -1.015000000    -3.052000000    -3.871000000
H    -0.217000000    -3.517000000    -3.620000000
H    -1.156000000    -3.294000000    -4.786000000
O    -0.613000000    -8.219000000     0.686000000
H    -1.230000000    -8.371000000    -0.029000000
H    -0.955000000    -7.447000000     1.138000000
O     2.319000000    -3.676000000     1.964000000
H     1.438000000    -3.705000000     2.337000000
H     2.600000000    -4.591000000     1.939000000
O    -3.752000000    -3.685000000     5.360000000
H    -4.462000000    -3.409000000     4.781000000
H    -3.026000000    -3.099000000     5.145000000
O    -0.933000000    -4.043000000     3.401000000
H    -1.174000000    -4.816000000     2.891000000
H    -1.729000000    -3.512000000     3.421000000
O    -3.383000000     2.178000000     3.312000000
H    -3.045000000     1.313000000     3.544000000
H    -4.136000000     2.305000000     3.890000000
O    -0.951000000     3.308000000    -3.811000000
H    -1.638000000     2.946000000    -3.252000000
H    -0.134000000     3.027000000    -3.399000000
O     2.787000000    -1.495000000    -3.806000000
H     3.215000000    -1.959000000    -3.086000000
H     3.128000000    -1.914000000    -4.597000000
O     1.146000000    -5.004000000    -3.295000000
H     1.885000000    -4.885000000    -2.698000000
H     1.523000000    -4.887000000    -4.167000000
O    -2.377000000     5.233000000    -2.161000000
H    -2.298000000     4.353000000    -1.793000000
H    -1.630000000     5.313000000    -2.754000000
O    -2.121000000    -6.183000000     1.984000000
H    -2.699000000    -6.701000000     2.545000000
H    -2.714000000    -5.718000000     1.394000000
O    -2.719000000    -0.994000000    -3.044000000
H    -2.066000000    -1.687000000    -2.942000000
H    -3.364000000    -1.170000000    -2.359000000
O     3.440000000    -3.502000000     4.520000000
H     3.117000000    -3.573000000     3.622000000
H     4.089000000    -4.202000000     4.597000000
O     1.911000000     1.073000000    -6.298000000
H     2.689000000     1.370000000    -5.827000000
H     1.383000000     0.630000000    -5.633000000
O    -3.517000000    -3.463000000     2.297000000
H    -3.328000000    -3.569000000     1.365000000
H    -4.160000000    -4.146000000     2.490000000
O     3.348000000     7.921000000    -0.383000000
H     3.292000000     6.995000000    -0.146000000
H     2.839000000     8.371000000     0.292000000
O     3.639000000    -5.129000000    -2.237000000
H     3.983000000    -5.803000000    -1.651000000
H     3.883000000    -4.303000000    -1.821000000
O     2.370000000     5.447000000     0.786000000
H     2.982000000     5.007000000     1.376000000
H     1.710000000     4.783000000     0.587000000
O     3.451000000     3.528000000    -4.917000000
H     3.544000000     3.543000000    -3.965000000
H     4.302000000     3.226000000    -5.236000000
O    -1.752000000     8.978000000     0.034000000
H    -1.422000000     8.086000000     0.146000000
H    -1.867000000     9.304000000     0.926000000
O     5.941000000     4.633000000    -1.899000000
H     5.864000000     5.055000000    -2.754000000
H     5.069000000     4.276000000    -1.728000000
O    -4.838000000     0.248000000    -0.671000000
H    -4.926000000     0.780000000    -1.462000000
H    -4.365000000     0.809000000    -0.056000000
O     2.032000000     5.887000000    -5.147000000
H     2.363000000     5.007000000    -4.966000000
H     1.554000000     5.799000000    -5.971000000
O     0.482000000     1.630000000     5.374000000
H     1.317000000     2.028000000     5.621000000
H     0.216000000     2.100000000     4.584000000
O     3.269000000    -1.152000000     1.636000000
H     3.414000000    -1.845000000     2.280000000
H     2.684000000    -1.545000000     0.988000000
O     0.496000000     6.206000000     3.724000000
H    -0.212000000     6.848000000     3.683000000
H     0.090000000     5.384000000     3.447000000
O     0.524000000     5.903000000    -2.516000000
H     0.973000000     5.836000000    -3.358000000
H     0.673000000     5.055000000    -2.097000000
O    -2.540000000     2.282000000    -2.091000000
H    -3.471000000     2.278000000    -2.312000000
H    -2.308000000     1.356000000    -2.015000000
O     0.760000000    -4.166000000     5.602000000
H     0.114000000    -3.609000000     5.168000000
H     1.597000000    -3.726000000     5.449000000
O     3.220000000     3.391000000     3.172000000
H     3.962000000     3.429000000     2.568000000
H     2.823000000     2.536000000     3.009000000
O     4.574000000    -2.524000000    -1.710000000
H     5.318000000    -2.319000000    -2.276000000
H     4.916000000    -2.430000000    -0.821000000
O    -5.008000000    -0.944000000     2.431000000
H    -5.341000000    -0.523000000     1.639000000
H    -4.566000000    -1.732000000     2.116000000
O     3.741000000     3.163000000    -2.273000000
H     4.030000000     2.378000000    -1.807000000
H     2.902000000     3.386000000    -1.870000000
O    -1.792000000     0.241000000     4.429000000
H    -1.912000000    -0.538000000     4.972000000
H    -0.979000000     0.633000000     4.748000000
O    -4.112000000     2.330000000     0.875000000
H    -3.716000000     3.187000000     0.718000000
H    -3.841000000     2.101000000     1.764000000
