144
-2824.43407
O     5.186000000     1.756000000    -2.644000000
H     5.055000000     0.819000000    -2.791000000
H     4.359000000     2.158000000    -2.912000000
O     7.590000000    -2.289000000     2.667000000
H     7.773000000    -3.181000000     2.964000000
H     6.655000000    -2.168000000     2.833000000
O    -3.052000000     1.060000000    -3.799000000
H    -3.064000000     1.099000000    -2.843000000
H    -2.365000000     1.675000000    -4.055000000
O     5.632000000    -1.303000000    -2.103000000
H     6.523000000    -1.065000000    -1.845000000
H     5.395000000    -2.020000000    -1.515000000
O    -3.339000000     2.750000000     4.572000000
H    -3.453000000     1.801000000     4.521000000
H    -2.900000000     2.894000000     5.411000000
O     5.412000000     2.421000000     3.115000000
H     5.797000000     2.554000000     3.982000000
H     4.829000000     1.670000000     3.225000000
O     4.847000000    -2.863000000     3.715000000
H     4.939000000    -3.633000000     3.154000000
H     3.904000000    -2.709000000     3.758000000
O     4.856000000    -3.788000000    -0.560000000
H     4.154000000    -4.382000000    -0.827000000
H     5.175000000    -4.151000000     0.267000000
O    -6.447000000     0.482000000     3.915000000
H    -6.023000000     0.541000000     3.059000000
H    -6.952000000     1.293000000     3.988000000
O    -5.727000000     5.836000000     1.787000000
H    -6.623000000     5.522000000     1.660000000
H    -5.459000000     5.464000000     2.626000000
O     1.740000000     2.801000000    -0.961000000
H     2.138000000     2.601000000    -1.808000000
H     0.816000000     2.576000000    -1.071000000
O    -2.653000000    -0.319000000     4.041000000
H    -1.836000000    -0.809000000     4.139000000
H    -3.050000000    -0.672000000     3.245000000
O     2.520000000    -2.946000000    -2.963000000
H     1.596000000    -3.183000000    -2.889000000
H     2.924000000    -3.311000000    -2.176000000
O    -3.157000000     4.859000000    -2.955000000
H    -3.572000000     4.652000000    -2.117000000
H    -2.807000000     4.023000000    -3.262000000
O    -2.101000000    -4.429000000    -1.912000000
H    -2.614000000    -5.001000000    -2.483000000
H    -1.662000000    -5.026000000    -1.307000000
O     2.760000000     3.741000000     1.352000000
H     3.673000000     3.758000000     1.065000000
H     2.280000000     3.385000000     0.604000000
O    -4.775000000     1.860000000     2.169000000
H    -4.167000000     2.281000000     2.777000000
H    -4.261000000     1.724000000     1.373000000
O    -3.967000000    -1.133000000     1.581000000
H    -3.743000000    -1.878000000     1.023000000
H    -4.354000000    -0.494000000     0.983000000
O    -3.564000000    -1.789000000    -3.712000000
H    -2.747000000    -2.040000000    -4.144000000
H    -3.494000000    -0.841000000    -3.600000000
O     0.541000000     3.441000000     3.598000000
H     1.353000000     3.537000000     3.101000000
H     0.268000000     4.338000000     3.787000000
O    -6.786000000    -1.412000000    -1.694000000
H    -6.257000000    -0.615000000    -1.658000000
H    -6.705000000    -1.713000000    -2.599000000
O    -2.204000000     4.009000000     2.239000000
H    -2.508000000     3.346000000     1.618000000
H    -2.175000000     3.553000000     3.080000000
O    -4.445000000    -4.403000000    -4.480000000
H    -4.439000000    -3.907000000    -5.299000000
H    -4.113000000    -3.789000000    -3.825000000
O     3.632000000     0.472000000     4.101000000
H     3.641000000    -0.324000000     4.633000000
H     2.736000000     0.799000000     4.174000000
O    -1.996000000    -3.639000000     1.794000000
H    -1.883000000    -4.304000000     2.473000000
H    -2.164000000    -4.138000000     0.995000000
O     4.593000000    -5.182000000     1.934000000
H     4.840000000    -6.064000000     2.211000000
H     3.636000000    -5.196000000     1.918000000
O     2.126000000    -2.168000000     3.680000000
H     1.915000000    -1.717000000     4.497000000
H     1.276000000    -2.340000000     3.275000000
O     1.821000000    -5.295000000     2.470000000
H     2.176000000    -6.143000000     2.737000000
H     1.115000000    -5.125000000     3.093000000
O     3.740000000    -0.669000000    -3.956000000
H     3.308000000    -1.442000000    -3.594000000
H     4.642000000    -0.729000000    -3.641000000
O    -4.244000000     0.706000000    -6.351000000
H    -4.020000000     1.125000000    -5.520000000
H    -3.443000000     0.253000000    -6.614000000
O    -0.673000000     3.833000000    -0.952000000
H    -1.440000000     3.792000000    -0.381000000
H     0.048000000     4.068000000    -0.367000000
O    -0.034000000    -3.653000000    -3.222000000
H    -0.480000000    -3.315000000    -3.998000000
H    -0.741000000    -3.869000000    -2.614000000
O    -6.136000000     1.295000000    -1.870000000
H    -5.217000000     1.322000000    -1.602000000
H    -6.551000000     2.000000000    -1.372000000
O    -7.639000000     3.973000000    -1.399000000
H    -6.883000000     4.011000000    -1.984000000
H    -7.716000000     4.860000000    -1.048000000
O     2.217000000    -5.418000000    -0.788000000
H     2.122000000    -6.157000000    -0.188000000
H     1.720000000    -4.710000000    -0.377000000
O     2.561000000     2.245000000    -3.674000000
H     3.053000000     2.663000000    -4.381000000
H     2.500000000     1.327000000    -3.936000000
O     3.935000000    -4.401000000    -4.742000000
H     4.538000000    -3.666000000    -4.851000000
H     3.202000000    -4.038000000    -4.245000000
O    -0.409000000    -1.793000000     3.077000000
H    -1.030000000    -2.355000000     2.612000000
H    -0.352000000    -1.003000000     2.540000000
O     1.265000000    -1.209000000     6.086000000
H     1.206000000    -1.197000000     7.041000000
H     0.962000000    -0.343000000     5.816000000
O     5.637000000     3.622000000     0.727000000
H     6.286000000     3.098000000     0.258000000
H     5.536000000     3.180000000     1.570000000
O     0.423000000     5.109000000     1.311000000
H    -0.255000000     4.767000000     1.894000000
H     1.210000000     4.615000000     1.543000000
O    -4.488000000     4.242000000    -0.384000000
H    -4.073000000     3.430000000    -0.092000000
H    -4.768000000     4.672000000     0.424000000
O     0.325000000    -6.497000000    -3.273000000
H     0.366000000    -5.559000000    -3.091000000
H     0.842000000    -6.900000000    -2.575000000
O    -0.726000000     6.755000000    -0.967000000
H    -0.215000000     6.285000000    -0.308000000
H    -0.977000000     6.082000000    -1.599000000
O    -7.831000000     1.061000000    -4.250000000
H    -7.770000000     2.000000000    -4.077000000
H    -7.162000000     0.670000000    -3.687000000
O    -1.287000000    -2.326000000    -5.311000000
H    -1.294000000    -1.453000000    -5.703000000
H    -0.821000000    -2.870000000    -5.945000000
O    -0.918000000     2.764000000    -3.736000000
H    -0.175000000     3.135000000    -4.212000000
H    -0.713000000     2.917000000    -2.814000000
O     0.601000000     1.381000000     5.444000000
H     0.384000000     2.118000000     4.873000000
H    -0.047000000     1.425000000     6.148000000
