144
-2808.10684
O    -5.562000000    -4.509000000     4.370000000
H    -5.959000000    -4.987000000     3.642000000
H    -4.782000000    -4.102000000     3.992000000
O     0.261000000    -2.377000000    -2.239000000
H     0.179000000    -1.704000000    -1.562000000
H    -0.227000000    -2.028000000    -2.984000000
O     5.830000000    -3.092000000    -0.389000000
H     5.661000000    -2.174000000    -0.181000000
H     5.354000000    -3.582000000     0.282000000
O     6.867000000    -0.011000000     1.772000000
H     6.543000000     0.627000000     2.408000000
H     6.078000000    -0.350000000     1.348000000
O     1.230000000    -4.514000000     3.209000000
H     0.820000000    -3.681000000     3.439000000
H     0.499000000    -5.077000000     2.950000000
O    -4.057000000    -7.706000000     0.228000000
H    -4.054000000    -6.880000000    -0.257000000
H    -3.785000000    -7.464000000     1.113000000
O    -4.609000000     1.932000000    -2.958000000
H    -5.539000000     1.887000000    -3.179000000
H    -4.509000000     1.332000000    -2.219000000
O     5.331000000    -0.092000000    -0.967000000
H     5.085000000     0.831000000    -1.036000000
H     4.693000000    -0.551000000    -1.512000000
O     0.612000000     6.509000000    -3.376000000
H     0.589000000     5.689000000    -3.869000000
H     1.284000000     7.032000000    -3.812000000
O    -1.788000000     1.437000000     2.905000000
H    -0.956000000     1.113000000     2.559000000
H    -1.781000000     2.373000000     2.705000000
O    -2.721000000    -5.649000000    -2.961000000
H    -3.300000000    -6.407000000    -3.049000000
H    -2.807000000    -5.388000000    -2.044000000
O    -5.234000000    -3.371000000     0.075000000
H    -5.846000000    -3.227000000     0.796000000
H    -4.530000000    -2.741000000     0.228000000
O     1.063000000     0.426000000     3.034000000
H     1.287000000     0.814000000     3.880000000
H     1.374000000     1.062000000     2.390000000
O     4.336000000     1.663000000    -5.198000000
H     5.227000000     1.418000000    -4.952000000
H     4.381000000     1.816000000    -6.142000000
O    -3.235000000    -6.662000000     2.545000000
H    -3.100000000    -5.722000000     2.424000000
H    -2.379000000    -6.993000000     2.819000000
O    -3.373000000     5.839000000     0.030000000
H    -4.211000000     6.288000000     0.136000000
H    -3.049000000     6.135000000    -0.821000000
O     4.150000000     5.616000000     1.338000000
H     3.442000000     6.220000000     1.561000000
H     4.749000000     6.136000000     0.802000000
O     1.646000000     6.768000000    -0.728000000
H     1.240000000     6.907000000    -1.583000000
H     2.544000000     7.083000000    -0.836000000
O     4.234000000     3.024000000     2.109000000
H     4.307000000     2.702000000     1.211000000
H     4.491000000     3.944000000     2.055000000
O     7.701000000     0.313000000    -2.125000000
H     8.349000000    -0.290000000    -1.761000000
H     6.885000000     0.087000000    -1.679000000
O    -0.289000000     4.100000000    -4.781000000
H    -0.467000000     3.321000000    -4.254000000
H    -1.058000000     4.656000000    -4.653000000
O     0.307000000    -2.080000000     3.728000000
H     0.863000000    -1.441000000     3.282000000
H    -0.288000000    -1.550000000     4.259000000
O     2.367000000     2.858000000     4.259000000
H     2.819000000     3.002000000     3.428000000
H     1.568000000     3.380000000     4.191000000
O     4.390000000    -0.294000000     4.184000000
H     3.555000000    -0.646000000     3.875000000
H     4.565000000    -0.771000000     4.995000000
O    -3.323000000     3.144000000    -5.271000000
H    -3.402000000     2.822000000    -4.374000000
H    -4.190000000     3.005000000    -5.653000000
O    -7.380000000    -1.357000000    -1.491000000
H    -7.790000000    -1.850000000    -0.781000000
H    -8.042000000    -0.717000000    -1.752000000
O    -1.714000000     4.825000000     2.069000000
H    -2.314000000     5.014000000     1.348000000
H    -2.285000000     4.661000000     2.820000000
O    -3.965000000    -0.828000000    -3.756000000
H    -4.822000000    -1.082000000    -3.414000000
H    -4.123000000    -0.636000000    -4.680000000
O     4.349000000    -4.115000000     1.716000000
H     4.692000000    -3.670000000     2.491000000
H     3.401000000    -3.993000000     1.770000000
O    -0.285000000    -4.774000000    -0.437000000
H    -0.395000000    -4.669000000    -1.382000000
H    -0.801000000    -4.064000000    -0.055000000
O    -3.374000000    -5.208000000    -0.297000000
H    -4.070000000    -4.596000000    -0.060000000
H    -2.572000000    -4.688000000    -0.255000000
O    -6.318000000    -0.940000000     3.610000000
H    -5.742000000    -0.181000000     3.702000000
H    -6.964000000    -0.671000000     2.957000000
O    -1.199000000    -0.830000000    -4.046000000
H    -2.139000000    -0.823000000    -3.868000000
H    -1.066000000    -0.109000000    -4.662000000
O     2.321000000    -4.512000000    -2.076000000
H     1.912000000    -3.707000000    -1.762000000
H     1.756000000    -5.212000000    -1.749000000
O     0.902000000     3.950000000     2.328000000
H     1.525000000     4.410000000     1.765000000
H     0.073000000     4.409000000     2.194000000
O    -7.113000000    -5.070000000    -1.014000000
H    -6.277000000    -4.617000000    -1.115000000
H    -7.509000000    -5.042000000    -1.885000000
O    -3.631000000     4.315000000    -2.171000000
H    -3.915000000     3.447000000    -2.458000000
H    -3.729000000     4.296000000    -1.219000000
O     2.588000000     4.102000000    -4.738000000
H     2.829000000     3.182000000    -4.633000000
H     1.754000000     4.080000000    -5.206000000
O     5.914000000     1.928000000     3.693000000
H     5.295000000     2.274000000     3.049000000
H     5.442000000     1.210000000     4.116000000
O    -2.962000000    -1.007000000     3.667000000
H    -2.541000000    -0.160000000     3.518000000
H    -3.365000000    -1.225000000     2.827000000
O    -6.286000000     2.186000000     0.534000000
H    -5.785000000     1.557000000     0.014000000
H    -6.041000000     1.997000000     1.439000000
O    -0.651000000    -6.073000000     1.722000000
H    -0.374000000    -5.984000000     0.810000000
H    -1.393000000    -5.475000000     1.807000000
O    -2.876000000    -3.833000000     3.393000000
H    -2.869000000    -3.134000000     4.047000000
H    -2.389000000    -3.472000000     2.652000000
O     4.019000000     5.103000000    -2.013000000
H     3.791000000     5.914000000    -1.559000000
H     3.221000000     4.858000000    -2.482000000
O     3.307000000    -0.679000000    -3.009000000
H     2.382000000    -0.557000000    -2.793000000
H     3.493000000     0.000000000    -3.657000000
O    -5.046000000     0.105000000    -0.912000000
H    -5.728000000    -0.486000000    -1.230000000
H    -4.537000000    -0.426000000    -0.299000000
O     5.178000000     2.912000000    -0.662000000
H     4.823000000     3.702000000    -1.068000000
H     6.126000000     3.048000000    -0.662000000
O     1.763000000     6.944000000     1.983000000
H     1.450000000     7.012000000     1.081000000
H     0.976000000     7.045000000     2.518000000
