144
-2824.24760
O     2.883000000     5.497000000    -1.843000000
H     2.306000000     6.072000000    -1.340000000
H     2.667000000     4.616000000    -1.538000000
O    -0.578000000     1.022000000     4.367000000
H    -1.070000000     1.804000000     4.119000000
H     0.326000000     1.325000000     4.451000000
O    -4.676000000    -0.096000000     2.802000000
H    -4.522000000     0.688000000     2.274000000
H    -5.489000000     0.088000000     3.273000000
O     4.773000000     6.467000000    -3.357000000
H     4.420000000     7.166000000    -3.908000000
H     4.190000000     6.442000000    -2.599000000
O    -5.928000000    -0.731000000     0.430000000
H    -6.220000000    -1.635000000     0.310000000
H    -5.170000000    -0.799000000     1.010000000
O    -4.209000000    -2.101000000    -2.322000000
H    -3.852000000    -1.220000000    -2.210000000
H    -3.455000000    -2.680000000    -2.219000000
O    -3.548000000    -1.956000000     4.907000000
H    -3.426000000    -1.523000000     4.062000000
H    -3.388000000    -2.883000000     4.726000000
O     1.711000000     2.372000000     5.260000000
H     2.166000000     2.804000000     4.537000000
H     1.005000000     2.975000000     5.493000000
O     2.262000000    -0.610000000     2.092000000
H     1.399000000    -0.975000000     2.286000000
H     2.144000000    -0.143000000     1.264000000
O     0.662000000    -4.324000000     2.755000000
H     0.363000000    -3.418000000     2.832000000
H     0.940000000    -4.560000000     3.640000000
O    -2.100000000     1.937000000    -3.210000000
H    -2.686000000     1.844000000    -3.961000000
H    -2.386000000     1.261000000    -2.596000000
O    -0.415000000    -1.430000000    -4.599000000
H    -0.346000000    -2.196000000    -4.030000000
H    -1.263000000    -1.529000000    -5.032000000
O    -2.195000000    -4.003000000    -2.610000000
H    -1.245000000    -4.082000000    -2.527000000
H    -2.538000000    -4.799000000    -2.206000000
O    -6.608000000    -0.960000000    -2.808000000
H    -5.793000000    -1.441000000    -2.664000000
H    -6.786000000    -1.065000000    -3.742000000
O     0.562000000    -5.451000000    -2.875000000
H     0.896000000    -5.629000000    -3.755000000
H     1.148000000    -5.937000000    -2.295000000
O     0.011000000    -1.635000000     3.749000000
H    -0.365000000    -0.764000000     3.878000000
H     0.043000000    -2.014000000     4.627000000
O     1.415000000     3.228000000    -4.161000000
H     2.038000000     3.892000000    -4.457000000
H     1.640000000     3.081000000    -3.243000000
O    -0.560000000     5.634000000    -1.610000000
H    -0.842000000     5.429000000    -2.501000000
H    -1.004000000     4.986000000    -1.063000000
O     3.163000000     4.982000000    -4.922000000
H     3.577000000     5.303000000    -4.121000000
H     3.737000000     5.284000000    -5.626000000
O    -1.797000000    -5.350000000     1.691000000
H    -1.061000000    -4.979000000     2.177000000
H    -2.190000000    -5.980000000     2.295000000
O    -2.056000000     3.507000000    -0.933000000
H    -2.857000000     3.959000000    -1.196000000
H    -2.088000000     2.672000000    -1.400000000
O    -3.121000000     2.000000000     1.273000000
H    -2.465000000     2.511000000     0.798000000
H    -3.393000000     2.569000000     1.993000000
O     2.434000000    -2.381000000    -5.733000000
H     3.336000000    -2.116000000    -5.555000000
H     1.924000000    -1.985000000    -5.026000000
O     0.106000000     5.019000000     1.586000000
H     0.299000000     5.955000000     1.520000000
H     0.640000000     4.615000000     0.902000000
O     3.751000000    -0.861000000    -3.615000000
H     3.531000000     0.070000000    -3.601000000
H     4.686000000    -0.884000000    -3.819000000
O    -2.325000000     6.583000000     0.667000000
H    -1.603000000     6.013000000     0.931000000
H    -1.914000000     7.256000000     0.124000000
O    -3.379000000     0.352000000    -1.350000000
H    -2.940000000     0.307000000    -0.500000000
H    -4.275000000     0.619000000    -1.142000000
O    -4.032000000     3.567000000     3.299000000
H    -4.576000000     3.535000000     4.086000000
H    -3.134000000     3.519000000     3.626000000
O    -2.518000000     1.199000000     6.611000000
H    -2.691000000     2.116000000     6.398000000
H    -1.963000000     0.888000000     5.896000000
O     2.263000000     3.606000000     2.837000000
H     2.256000000     4.532000000     2.595000000
H     2.199000000     3.140000000     2.003000000
O     2.386000000    -6.154000000    -0.952000000
H     1.864000000    -6.663000000    -0.332000000
H     3.283000000    -6.460000000    -0.818000000
O    -1.204000000    -8.313000000    -0.032000000
H    -1.707000000    -7.541000000    -0.290000000
H    -0.423000000    -7.958000000     0.395000000
O     2.426000000     6.900000000     1.524000000
H     2.058000000     7.754000000     1.752000000
H     2.854000000     7.042000000     0.679000000
O    -1.180000000     3.613000000     3.677000000
H    -1.035000000     3.860000000     2.764000000
H    -0.543000000     4.130000000     4.170000000
O     4.612000000     4.117000000     0.723000000
H     4.766000000     5.047000000     0.559000000
H     3.727000000     3.959000000     0.395000000
O     6.756000000     2.531000000    -0.264000000
H     5.954000000     2.932000000     0.070000000
H     7.385000000     3.251000000    -0.304000000
O    -1.257000000     4.536000000    -3.984000000
H    -0.580000000     4.297000000    -4.617000000
H    -1.734000000     3.721000000    -3.824000000
O     6.850000000     1.130000000    -2.802000000
H     6.139000000     1.583000000    -3.256000000
H     6.855000000     1.511000000    -1.924000000
O    -2.881000000    -6.199000000    -0.673000000
H    -2.434000000    -5.884000000     0.113000000
H    -3.812000000    -6.124000000    -0.465000000
O     0.866000000     7.694000000    -0.819000000
H     0.151000000     8.309000000    -0.655000000
H     0.430000000     6.857000000    -0.979000000
O     3.830000000     1.824000000    -3.722000000
H     3.514000000     2.379000000    -4.435000000
H     3.304000000     2.085000000    -2.966000000
O    -4.854000000    -3.659000000    -4.610000000
H    -5.057000000    -4.594000000    -4.652000000
H    -4.717000000    -3.485000000    -3.679000000
O     5.050000000     2.986000000     3.499000000
H     4.372000000     3.080000000     2.830000000
H     5.864000000     3.214000000     3.049000000
O     1.031000000    -6.902000000     1.252000000
H     0.966000000    -5.969000000     1.455000000
H     1.428000000    -7.289000000     2.033000000
O    -3.255000000    -4.651000000     4.972000000
H    -3.887000000    -4.884000000     5.652000000
H    -2.833000000    -5.480000000     4.743000000
O     4.511000000    -2.375000000    -1.308000000
H     4.402000000    -1.726000000    -2.004000000
H     3.872000000    -2.121000000    -0.641000000
O     0.582000000     0.993000000    -5.681000000
H     0.339000000     0.294000000    -5.074000000
H     0.720000000     1.758000000    -5.123000000
O    -5.649000000    -5.473000000    -0.939000000
H    -5.157000000    -5.354000000    -1.751000000
H    -5.938000000    -6.386000000    -0.965000000
