144
-2838.65077
O     3.209000000    -1.476000000    -3.458000000
H     4.115000000    -1.644000000    -3.718000000
H     3.106000000    -0.528000000    -3.547000000
O     3.378000000     4.220000000    -1.401000000
H     2.874000000     3.486000000    -1.754000000
H     4.227000000     4.160000000    -1.839000000
O     3.919000000     1.072000000    -3.132000000
H     4.042000000     1.353000000    -4.039000000
H     3.073000000     1.442000000    -2.879000000
O    -2.950000000    -6.232000000     4.073000000
H    -3.153000000    -6.100000000     4.999000000
H    -3.570000000    -5.669000000     3.609000000
O    -5.323000000    -3.497000000     1.686000000
H    -4.960000000    -2.750000000     2.163000000
H    -4.556000000    -3.990000000     1.394000000
O     4.565000000    -4.282000000     0.846000000
H     4.822000000    -5.132000000     0.489000000
H     4.172000000    -4.488000000     1.694000000
O    -2.064000000     3.886000000     0.046000000
H    -1.775000000     4.798000000     0.017000000
H    -1.583000000     3.459000000    -0.663000000
O    -4.380000000     2.603000000     0.805000000
H    -4.349000000     2.650000000     1.761000000
H    -3.573000000     3.031000000     0.518000000
O    -0.323000000     6.258000000     2.216000000
H     0.106000000     5.517000000     1.790000000
H     0.206000000     7.016000000     1.968000000
O     1.562000000    -0.944000000     5.529000000
H     1.330000000    -1.203000000     6.421000000
H     1.700000000    -1.771000000     5.068000000
O     1.201000000    -5.206000000     5.303000000
H     0.658000000    -5.642000000     4.645000000
H     0.641000000    -5.152000000     6.077000000
O    -7.439000000    -0.718000000     2.129000000
H    -6.572000000    -0.345000000     1.972000000
H    -7.982000000     0.032000000     2.371000000
O    -4.747000000     2.200000000    -4.483000000
H    -4.489000000     3.120000000    -4.414000000
H    -3.948000000     1.712000000    -4.284000000
O    -1.925000000     6.320000000    -1.067000000
H    -1.130000000     6.827000000    -1.229000000
H    -2.502000000     6.922000000    -0.597000000
O     4.641000000    -1.425000000     0.763000000
H     4.737000000    -0.935000000    -0.053000000
H     4.605000000    -2.342000000     0.489000000
O    -1.673000000     1.789000000    -5.102000000
H    -1.924000000     1.791000000    -6.025000000
H    -0.945000000     2.409000000    -5.051000000
O     0.047000000     8.008000000    -1.681000000
H     0.486000000     8.857000000    -1.630000000
H     0.759000000     7.377000000    -1.789000000
O     2.372000000     2.176000000     1.397000000
H     3.108000000     2.217000000     0.785000000
H     2.621000000     1.498000000     2.025000000
O    -6.189000000     4.397000000     0.172000000
H    -5.503000000     3.730000000     0.174000000
H    -5.959000000     4.979000000     0.896000000
O    -2.985000000    -4.974000000     1.295000000
H    -2.290000000    -4.612000000     0.745000000
H    -2.864000000    -5.922000000     1.241000000
O    -3.676000000    -3.160000000    -2.100000000
H    -4.083000000    -2.365000000    -1.755000000
H    -2.788000000    -2.890000000    -2.337000000
O     0.685000000     0.147000000    -6.348000000
H     0.049000000     0.420000000    -5.687000000
H     0.392000000     0.574000000    -7.153000000
O    -0.638000000    -5.201000000    -1.629000000
H     0.117000000    -5.438000000    -2.169000000
H    -0.258000000    -4.801000000    -0.847000000
O     1.372000000    -3.623000000    -2.398000000
H     1.957000000    -4.140000000    -1.844000000
H     1.847000000    -2.806000000    -2.551000000
O    -4.584000000    -0.251000000     1.330000000
H    -4.157000000     0.531000000     0.980000000
H    -4.845000000    -0.748000000     0.555000000
O     3.163000000    -2.495000000     4.018000000
H     4.114000000    -2.572000000     4.085000000
H     2.904000000    -3.213000000     3.441000000
O    -0.728000000    -0.133000000     4.686000000
H     0.116000000    -0.459000000     4.998000000
H    -0.502000000     0.516000000     4.019000000
O    -1.561000000    -3.989000000     6.732000000
H    -1.020000000    -3.515000000     7.364000000
H    -1.858000000    -3.316000000     6.119000000
O    -0.414000000    -5.974000000     3.179000000
H    -1.350000000    -5.794000000     3.268000000
H    -0.360000000    -6.621000000     2.476000000
O     0.618000000     3.365000000    -4.874000000
H     0.851000000     3.203000000    -3.959000000
H     1.459000000     3.449000000    -5.323000000
O    -4.881000000    -0.754000000    -1.431000000
H    -4.585000000    -0.191000000    -2.146000000
H    -5.799000000    -0.516000000    -1.302000000
O    -0.199000000     1.664000000     2.722000000
H     0.498000000     1.537000000     2.079000000
H    -0.974000000     1.872000000     2.199000000
O     0.872000000     4.304000000     0.924000000
H     1.413000000     3.548000000     1.150000000
H     0.583000000     4.132000000     0.028000000
O    -1.086000000    -1.950000000    -2.383000000
H    -0.668000000    -2.809000000    -2.338000000
H    -0.634000000    -1.429000000    -1.719000000
O    -2.781000000     0.115000000    -3.378000000
H    -2.267000000     0.666000000    -3.969000000
H    -2.127000000    -0.342000000    -2.849000000
O     4.642000000     2.192000000     0.001000000
H     5.563000000     2.121000000     0.254000000
H     4.666000000     2.382000000    -0.937000000
O     5.524000000    -0.344000000    -1.548000000
H     6.380000000    -0.021000000    -1.830000000
H     4.922000000    -0.058000000    -2.236000000
O    -4.379000000    -0.778000000     6.295000000
H    -3.841000000    -0.596000000     5.525000000
H    -4.489000000    -1.729000000     6.291000000
O     0.989000000    -4.991000000     0.514000000
H     0.548000000    -5.820000000     0.700000000
H     1.350000000    -4.717000000     1.357000000
O    -4.471000000    -3.090000000     5.179000000
H    -5.324000000    -3.302000000     4.799000000
H    -4.094000000    -2.448000000     4.577000000
O     5.652000000     3.442000000    -2.431000000
H     6.154000000     2.731000000    -2.829000000
H     6.285000000     4.152000000    -2.325000000
O    -3.632000000     2.433000000     3.764000000
H    -3.171000000     3.206000000     3.437000000
H    -3.264000000     2.285000000     4.635000000
O     2.590000000    -4.931000000     2.801000000
H     1.979000000    -4.858000000     3.535000000
H     2.935000000    -5.822000000     2.866000000
O     1.286000000     5.492000000    -2.453000000
H     0.903000000     4.616000000    -2.423000000
H     2.164000000     5.383000000    -2.087000000
O    -1.914000000     4.764000000    -3.131000000
H    -2.049000000     5.332000000    -2.373000000
H    -1.142000000     4.245000000    -2.906000000
O     3.412000000    -0.053000000     2.874000000
H     4.077000000    -0.432000000     2.299000000
H     3.189000000    -0.759000000     3.481000000
O     3.111000000     1.458000000    -5.577000000
H     2.416000000     0.818000000    -5.731000000
H     3.639000000     1.435000000    -6.375000000
O    -3.344000000    -0.881000000     3.667000000
H    -3.730000000    -0.332000000     2.984000000
H    -2.421000000    -0.627000000     3.685000000
