144
-2777.18963
O     4.301000000     0.985000000    -0.847000000
H     3.975000000     1.878000000    -0.956000000
H     5.023000000     1.068000000    -0.224000000
O     1.529000000     4.915000000     1.088000000
H     1.340000000     4.700000000     0.174000000
H     2.337000000     4.439000000     1.283000000
O     4.170000000     3.287000000    -2.988000000
H     4.048000000     4.135000000    -3.415000000
H     3.326000000     3.103000000    -2.574000000
O    -0.872000000     3.395000000    -6.633000000
H    -1.625000000     3.238000000    -7.202000000
H    -0.209000000     3.772000000    -7.212000000
O    -3.483000000    -1.061000000     4.164000000
H    -4.080000000    -1.686000000     3.754000000
H    -3.662000000    -0.232000000     3.720000000
O     4.623000000     5.238000000     0.685000000
H     4.540000000     5.501000000    -0.232000000
H     5.380000000     5.728000000     1.007000000
O     1.458000000    -3.768000000     3.340000000
H     2.052000000    -3.061000000     3.088000000
H     1.574000000    -4.432000000     2.660000000
O     4.008000000     4.589000000    -5.467000000
H     4.294000000     4.020000000    -6.182000000
H     4.736000000     5.197000000    -5.339000000
O    -4.024000000     1.219000000     2.955000000
H    -4.299000000     0.864000000     2.109000000
H    -3.355000000     1.867000000     2.736000000
O    -1.655000000     2.853000000     0.602000000
H    -0.972000000     2.224000000     0.835000000
H    -1.247000000     3.416000000    -0.056000000
O     0.216000000     1.928000000     4.707000000
H     0.203000000     2.154000000     5.637000000
H    -0.178000000     1.056000000     4.666000000
O    -4.757000000    -2.530000000    -0.273000000
H    -5.622000000    -2.148000000    -0.123000000
H    -4.928000000    -3.461000000    -0.416000000
O    -1.007000000     4.888000000     2.754000000
H    -1.469000000     4.465000000     2.031000000
H    -0.080000000     4.799000000     2.531000000
O    -2.968000000     1.041000000    -5.255000000
H    -3.244000000     0.367000000    -4.634000000
H    -2.366000000     1.595000000    -4.758000000
O    -3.480000000     3.301000000    -2.305000000
H    -2.612000000     2.905000000    -2.385000000
H    -3.345000000     4.221000000    -2.535000000
O    -5.309000000     1.252000000    -2.420000000
H    -4.815000000     2.071000000    -2.384000000
H    -4.662000000     0.593000000    -2.673000000
O    -3.357000000    -0.812000000    -3.410000000
H    -3.629000000    -1.324000000    -2.648000000
H    -3.292000000    -1.452000000    -4.118000000
O     0.620000000    -3.050000000     5.867000000
H     0.303000000    -2.148000000     5.819000000
H     0.664000000    -3.338000000     4.955000000
O    -3.623000000    -5.298000000     3.219000000
H    -3.255000000    -5.575000000     2.380000000
H    -3.645000000    -4.342000000     3.166000000
O    -0.355000000    -3.230000000    -4.355000000
H     0.347000000    -3.201000000    -5.006000000
H    -1.040000000    -3.758000000    -4.765000000
O     0.307000000    -6.818000000     2.364000000
H     1.155000000    -6.792000000     1.921000000
H    -0.227000000    -6.174000000     1.899000000
O     3.626000000    -2.099000000     2.589000000
H     3.947000000    -1.597000000     3.338000000
H     4.387000000    -2.184000000     2.014000000
O    -2.358000000    -4.181000000     6.238000000
H    -2.138000000    -4.934000000     5.689000000
H    -1.585000000    -3.617000000     6.191000000
O     1.672000000     1.348000000    -5.568000000
H     1.166000000     2.022000000    -6.022000000
H     1.616000000     1.589000000    -4.643000000
O    -2.778000000    -6.344000000     0.766000000
H    -1.968000000    -6.196000000     0.278000000
H    -2.923000000    -7.289000000     0.708000000
O     1.533000000     4.571000000     4.234000000
H     1.102000000     3.717000000     4.269000000
H     2.250000000     4.452000000     3.611000000
O     6.907000000     2.751000000    -1.594000000
H     6.366000000     2.516000000    -2.348000000
H     6.302000000     3.183000000    -0.991000000
O     0.233000000     6.897000000    -3.641000000
H     0.183000000     7.227000000    -2.743000000
H     0.859000000     6.174000000    -3.595000000
O    -6.752000000    -1.010000000     3.651000000
H    -7.504000000    -1.397000000     3.205000000
H    -5.992000000    -1.441000000     3.258000000
O     3.634000000     3.740000000     2.600000000
H     4.329000000     3.223000000     3.008000000
H     4.077000000     4.237000000     1.913000000
O     4.661000000    -0.757000000     4.686000000
H     5.537000000    -0.424000000     4.885000000
H     4.106000000    -0.399000000     5.379000000
O    -0.672000000    -6.144000000     4.685000000
H    -0.407000000    -6.502000000     3.838000000
H     0.095000000    -6.261000000     5.245000000
O    -1.286000000     2.730000000    -4.097000000
H    -0.981000000     3.334000000    -4.774000000
H    -0.499000000     2.512000000    -3.598000000
O     2.231000000    -2.707000000    -2.594000000
H     1.282000000    -2.834000000    -2.621000000
H     2.381000000    -2.192000000    -1.801000000
O     1.240000000     4.372000000    -4.704000000
H     2.176000000     4.559000000    -4.783000000
H     1.202000000     3.517000000    -4.276000000
O    -4.209000000     0.367000000     0.406000000
H    -4.082000000     0.385000000    -0.542000000
H    -4.106000000    -0.554000000     0.645000000
O    -0.280000000     4.553000000    -0.992000000
H     0.423000000     4.110000000    -1.467000000
H    -0.040000000     5.479000000    -1.017000000
O    -5.066000000    -5.292000000    -0.561000000
H    -4.426000000    -5.291000000     0.150000000
H    -5.737000000    -5.913000000    -0.279000000
O    -1.062000000    -1.090000000    -6.444000000
H    -1.422000000    -0.625000000    -5.689000000
H    -0.192000000    -1.370000000    -6.160000000
O    -1.293000000    -4.934000000    -1.455000000
H    -1.841000000    -5.004000000    -2.237000000
H    -0.884000000    -4.072000000    -1.526000000
O     5.467000000     1.305000000     1.669000000
H     6.031000000     1.883000000     2.183000000
H     6.013000000     0.540000000     1.485000000
O     0.470000000     7.166000000    -0.875000000
H     1.161000000     7.304000000    -0.227000000
H     0.092000000     8.034000000    -1.011000000
O     1.635000000    -1.198000000    -6.045000000
H     1.555000000    -0.285000000    -5.766000000
H     2.497000000    -1.247000000    -6.459000000
O     3.178000000    -1.590000000    -0.152000000
H     3.271000000    -0.640000000    -0.223000000
H     2.825000000    -1.731000000     0.727000000
O    -1.175000000    -0.477000000     5.255000000
H    -1.466000000     0.013000000     6.023000000
H    -1.981000000    -0.822000000     4.871000000
O     4.225000000     0.587000000    -4.907000000
H     3.601000000     1.002000000    -5.503000000
H     4.334000000     1.219000000    -4.197000000
O    -4.745000000    -2.809000000     2.514000000
H    -4.248000000    -2.983000000     1.715000000
H    -5.519000000    -3.368000000     2.441000000
O    -4.064000000    -0.475000000     6.690000000
H    -3.980000000     0.450000000     6.455000000
H    -3.653000000    -0.944000000     5.964000000
