144
-2816.62142
O     6.974000000     1.277000000    -1.913000000
H     6.470000000     2.024000000    -2.236000000
H     6.817000000     1.273000000    -0.969000000
O     3.303000000     2.472000000     2.288000000
H     2.975000000     2.506000000     1.390000000
H     3.801000000     3.283000000     2.392000000
O     1.932000000    -3.217000000    -1.884000000
H     0.986000000    -3.363000000    -1.916000000
H     2.097000000    -2.916000000    -0.990000000
O     5.057000000     3.112000000    -1.335000000
H     4.864000000     3.926000000    -1.801000000
H     4.207000000     2.685000000    -1.237000000
O    -0.494000000    -5.857000000     3.765000000
H     0.014000000    -5.387000000     3.103000000
H    -1.107000000    -5.204000000     4.104000000
O    -3.567000000     4.841000000     2.260000000
H    -2.851000000     4.481000000     1.736000000
H    -4.203000000     5.152000000     1.616000000
O    -1.203000000     6.628000000    -0.486000000
H    -1.176000000     6.086000000     0.302000000
H    -0.354000000     6.485000000    -0.904000000
O     0.266000000     0.942000000     4.879000000
H     0.456000000     0.050000000     5.169000000
H    -0.268000000     1.313000000     5.582000000
O     2.833000000     0.282000000     3.792000000
H     1.913000000     0.355000000     3.538000000
H     3.278000000     0.957000000     3.279000000
O     2.091000000     5.346000000    -0.664000000
H     1.921000000     5.398000000    -1.605000000
H     2.158000000     4.408000000    -0.485000000
O     0.164000000     3.748000000     3.461000000
H     0.174000000     2.798000000     3.573000000
H    -0.318000000     4.074000000     4.221000000
O    -0.380000000     3.119000000    -4.129000000
H    -0.981000000     3.806000000    -3.841000000
H    -0.127000000     2.669000000    -3.324000000
O     5.316000000     6.600000000     0.113000000
H     5.046000000     6.936000000    -0.741000000
H     5.850000000     7.300000000     0.489000000
O    -5.063000000    -0.533000000    -2.059000000
H    -5.421000000     0.319000000    -2.311000000
H    -5.663000000    -1.169000000    -2.449000000
O    -2.549000000    -1.302000000    -5.404000000
H    -1.903000000    -0.597000000    -5.354000000
H    -2.427000000    -1.677000000    -6.277000000
O    -4.674000000    -4.521000000     2.468000000
H    -5.077000000    -3.750000000     2.070000000
H    -3.912000000    -4.179000000     2.936000000
O    -6.374000000    -2.925000000    -1.927000000
H    -7.153000000    -3.136000000    -1.412000000
H    -6.242000000    -3.689000000    -2.487000000
O    -5.153000000    -1.291000000     3.805000000
H    -5.164000000    -1.727000000     2.953000000
H    -4.700000000    -0.463000000     3.644000000
O    -2.646000000    -1.677000000    -2.797000000
H    -2.369000000    -1.552000000    -3.705000000
H    -3.570000000    -1.427000000    -2.793000000
O     0.539000000    -4.363000000     1.720000000
H     1.194000000    -3.711000000     1.467000000
H     0.298000000    -4.791000000     0.899000000
O    -2.010000000     2.721000000     5.726000000
H    -1.927000000     2.349000000     6.604000000
H    -2.764000000     3.307000000     5.784000000
O     0.965000000    -5.428000000    -4.477000000
H     1.920000000    -5.364000000    -4.464000000
H     0.699000000    -5.232000000    -3.579000000
O    -2.547000000    -3.115000000     3.448000000
H    -2.634000000    -2.414000000     4.094000000
H    -1.731000000    -2.917000000     2.988000000
O     4.566000000     0.215000000    -3.055000000
H     5.197000000     0.419000000    -2.364000000
H     3.775000000     0.693000000    -2.806000000
O     0.190000000    -5.610000000    -0.708000000
H    -0.104000000    -6.520000000    -0.684000000
H    -0.339000000    -5.205000000    -1.395000000
O    -5.678000000     0.645000000     0.521000000
H    -5.421000000     0.293000000    -0.331000000
H    -5.934000000     1.549000000     0.340000000
O     1.514000000     5.756000000     2.595000000
H     1.724000000     5.447000000     1.714000000
H     1.142000000     4.991000000     3.035000000
O     4.306000000    -0.666000000     0.465000000
H     4.763000000     0.153000000     0.652000000
H     5.005000000    -1.300000000     0.305000000
O     2.536000000     1.649000000    -7.204000000
H     2.401000000     2.550000000    -7.497000000
H     2.550000000     1.707000000    -6.249000000
O     4.577000000     5.251000000    -3.072000000
H     4.964000000     6.126000000    -3.046000000
H     3.635000000     5.403000000    -2.998000000
O     1.916000000     8.335000000    -0.968000000
H     2.648000000     8.608000000    -1.521000000
H     2.105000000     7.421000000    -0.755000000
O    -1.062000000    -4.155000000    -2.643000000
H    -1.545000000    -4.629000000    -3.321000000
H    -1.614000000    -3.400000000    -2.440000000
O     2.907000000     2.207000000    -4.471000000
H     3.563000000     2.850000000    -4.203000000
H     2.624000000     1.799000000    -3.653000000
O    -2.792000000     2.213000000     0.351000000
H    -2.845000000     1.816000000    -0.518000000
H    -2.139000000     1.689000000     0.814000000
O     5.285000000     3.925000000    -5.702000000
H     5.511000000     4.395000000    -4.899000000
H     5.462000000     4.551000000    -6.404000000
O    -5.249000000    -1.861000000     1.257000000
H    -5.304000000    -0.951000000     0.966000000
H    -5.037000000    -2.354000000     0.465000000
O    -0.553000000     0.302000000    -6.803000000
H     0.122000000     0.599000000    -6.193000000
H    -0.171000000    -0.465000000    -7.229000000
O     2.664000000     5.253000000    -5.996000000
H     3.322000000     4.609000000    -5.734000000
H     2.909000000     5.497000000    -6.888000000
O     4.665000000     4.881000000     2.225000000
H     4.757000000     5.358000000     1.400000000
H     4.247000000     5.505000000     2.818000000
O    -1.062000000     4.318000000     1.112000000
H    -0.798000000     4.002000000     1.977000000
H    -1.444000000     3.552000000     0.683000000
O     5.713000000     1.439000000     0.790000000
H     5.512000000     2.096000000     0.125000000
H     5.331000000     1.787000000     1.595000000
O     2.131000000     6.215000000    -3.410000000
H     2.267000000     7.120000000    -3.689000000
H     2.010000000     5.729000000    -4.225000000
O     2.753000000    -2.800000000     0.839000000
H     3.078000000    -1.904000000     0.922000000
H     3.192000000    -3.280000000     1.542000000
O    -0.038000000    -1.414000000     6.488000000
H    -0.835000000    -0.992000000     6.165000000
H    -0.348000000    -2.207000000     6.926000000
O     4.308000000    -2.701000000    -2.840000000
H     4.212000000    -1.796000000    -3.135000000
H     3.513000000    -2.874000000    -2.336000000
O    -2.284000000     1.171000000    -1.993000000
H    -2.470000000     0.270000000    -1.730000000
H    -2.928000000     1.359000000    -2.676000000
O    -4.345000000     1.392000000     3.163000000
H    -3.874000000     1.834000000     2.457000000
H    -4.910000000     2.069000000     3.535000000
O    -2.525000000    -0.357000000     5.418000000
H    -2.928000000    -0.539000000     6.267000000
H    -2.547000000     0.597000000     5.341000000
