144
-2827.43389
O     5.827000000     2.621000000     0.108000000
H     5.503000000     3.115000000     0.861000000
H     5.071000000     2.548000000    -0.474000000
O     0.437000000     5.267000000    -5.344000000
H     1.104000000     4.675000000    -5.692000000
H     0.255000000     5.872000000    -6.063000000
O    -1.068000000    -3.021000000     5.531000000
H    -0.596000000    -3.809000000     5.263000000
H    -1.889000000    -3.347000000     5.899000000
O    -0.976000000    -4.575000000     1.147000000
H    -0.671000000    -3.700000000     1.388000000
H    -0.179000000    -5.103000000     1.104000000
O     4.292000000    -0.753000000    -7.056000000
H     4.164000000     0.017000000    -6.503000000
H     4.443000000    -0.397000000    -7.932000000
O     0.943000000    -4.563000000    -1.802000000
H     0.517000000    -4.463000000    -0.950000000
H     0.219000000    -4.619000000    -2.426000000
O     0.036000000     3.354000000     3.479000000
H    -0.158000000     4.136000000     3.995000000
H     0.291000000     2.697000000     4.127000000
O    -1.104000000    -4.984000000    -3.457000000
H    -1.507000000    -5.068000000    -4.321000000
H    -1.730000000    -4.469000000    -2.950000000
O     6.746000000     0.314000000    -4.305000000
H     5.823000000     0.547000000    -4.405000000
H     6.737000000    -0.470000000    -3.756000000
O    -3.529000000    -3.901000000     6.333000000
H    -4.372000000    -3.743000000     6.757000000
H    -3.718000000    -3.843000000     5.396000000
O    -2.107000000     2.403000000     5.938000000
H    -2.627000000     2.230000000     5.153000000
H    -1.332000000     1.850000000     5.838000000
O    -4.552000000    -3.367000000     3.949000000
H    -5.356000000    -2.929000000     4.228000000
H    -4.805000000    -3.856000000     3.166000000
O    -2.699000000    -3.632000000    -2.159000000
H    -3.493000000    -3.526000000    -2.682000000
H    -2.892000000    -3.180000000    -1.337000000
O     2.949000000    -0.556000000     0.363000000
H     2.238000000     0.014000000     0.071000000
H     2.516000000    -1.377000000     0.597000000
O     3.604000000    -1.863000000    -2.684000000
H     2.770000000    -1.395000000    -2.722000000
H     4.197000000    -1.261000000    -2.236000000
O    -3.757000000    -0.727000000    -3.869000000
H    -3.376000000     0.136000000    -4.035000000
H    -3.526000000    -0.920000000    -2.960000000
O     0.176000000     6.042000000    -0.225000000
H     0.547000000     5.397000000     0.377000000
H     0.590000000     5.849000000    -1.067000000
O    -3.636000000    -5.420000000     1.213000000
H    -3.833000000    -5.875000000     2.032000000
H    -2.763000000    -5.053000000     1.347000000
O     1.620000000    -5.463000000     1.451000000
H     1.813000000    -5.887000000     2.287000000
H     2.189000000    -5.905000000     0.821000000
O    -1.534000000     3.905000000    -3.820000000
H    -0.910000000     4.453000000    -4.295000000
H    -1.174000000     3.843000000    -2.935000000
O    -6.809000000    -0.465000000     1.778000000
H    -5.963000000    -0.395000000     2.221000000
H    -7.427000000    -0.041000000     2.373000000
O     1.976000000     2.779000000    -5.292000000
H     2.857000000     3.150000000    -5.259000000
H     1.840000000     2.408000000    -4.420000000
O     1.686000000     4.070000000     1.352000000
H     1.006000000     3.833000000     1.982000000
H     2.389000000     3.440000000     1.510000000
O    -4.286000000     0.035000000     3.017000000
H    -3.935000000    -0.387000000     3.801000000
H    -3.593000000     0.631000000     2.735000000
O     2.466000000    -1.168000000     3.697000000
H     2.962000000    -0.515000000     4.192000000
H     1.560000000    -0.862000000     3.738000000
O     1.951000000    -2.720000000     1.413000000
H     2.165000000    -2.499000000     2.320000000
H     2.020000000    -3.674000000     1.376000000
O    -0.359000000    -5.285000000     4.251000000
H    -0.010000000    -6.139000000     4.508000000
H    -0.733000000    -5.430000000     3.382000000
O     4.927000000    -2.543000000    -5.032000000
H     4.682000000    -2.091000000    -5.840000000
H     4.405000000    -2.117000000    -4.352000000
O     0.212000000    -1.077000000    -4.876000000
H     0.845000000    -1.786000000    -4.994000000
H     0.712000000    -0.378000000    -4.454000000
O     5.217000000    -0.338000000    -1.058000000
H     4.327000000    -0.311000000    -0.707000000
H     5.520000000     0.569000000    -1.012000000
O    -3.915000000    -2.307000000     0.266000000
H    -4.771000000    -1.886000000     0.197000000
H    -4.109000000    -3.198000000     0.559000000
O     0.510000000     1.382000000     5.223000000
H     0.937000000     1.820000000     5.959000000
H     0.543000000     0.451000000     5.447000000
O     2.210000000    -3.232000000    -5.400000000
H     1.676000000    -4.020000000    -5.304000000
H     3.077000000    -3.490000000    -5.086000000
O    -2.047000000    -2.372000000    -5.810000000
H    -2.588000000    -1.929000000    -5.157000000
H    -1.214000000    -2.526000000    -5.365000000
O     2.211000000     1.919000000    -7.969000000
H     1.473000000     2.169000000    -8.525000000
H     1.886000000     2.028000000    -7.076000000
O    -3.120000000    -0.380000000     5.660000000
H    -3.170000000    -0.677000000     6.568000000
H    -2.815000000    -1.147000000     5.174000000
O     4.000000000     2.722000000    -1.674000000
H     3.563000000     2.355000000    -2.442000000
H     3.373000000     3.353000000    -1.321000000
O    -0.612000000     0.045000000    -7.194000000
H    -0.572000000    -0.175000000    -6.263000000
H     0.120000000    -0.433000000    -7.584000000
O     1.050000000     4.949000000    -2.602000000
H     1.052000000     4.005000000    -2.445000000
H     0.890000000     5.035000000    -3.542000000
O     4.191000000     0.825000000    -4.639000000
H     4.203000000     1.607000000    -5.192000000
H     3.272000000     0.720000000    -4.394000000
O    -2.907000000     0.239000000    -0.767000000
H    -2.974000000    -0.571000000    -0.261000000
H    -2.013000000     0.543000000    -0.616000000
O    -2.857000000     2.732000000     3.086000000
H    -1.933000000     2.928000000     2.933000000
H    -3.316000000     3.171000000     2.369000000
O     4.869000000     3.468000000    -5.198000000
H     4.966000000     4.259000000    -5.729000000
H     5.404000000     3.634000000    -4.422000000
O    -2.619000000     1.531000000    -4.779000000
H    -1.900000000     1.224000000    -5.331000000
H    -2.294000000     2.344000000    -4.392000000
O     3.537000000    -3.287000000     5.209000000
H     2.961000000    -2.664000000     4.765000000
H     3.969000000    -2.770000000     5.890000000
O     3.564000000    -4.445000000    -2.393000000
H     2.675000000    -4.653000000    -2.104000000
H     3.571000000    -3.492000000    -2.476000000
O    -1.829000000     4.603000000    -1.129000000
H    -1.135000000     5.158000000    -0.773000000
H    -2.400000000     5.208000000    -1.603000000
O     0.608000000    -1.110000000     6.208000000
H     0.893000000    -1.385000000     7.079000000
H    -0.026000000    -1.776000000     5.942000000
