144
-2835.33741
O     3.588000000    -1.222000000     2.933000000
H     2.886000000    -1.164000000     3.581000000
H     3.884000000    -0.319000000     2.819000000
O     1.026000000     2.679000000     3.384000000
H     1.645000000     2.943000000     4.064000000
H     1.534000000     2.705000000     2.574000000
O    -5.993000000     0.041000000     3.315000000
H    -6.292000000    -0.748000000     2.862000000
H    -6.496000000     0.751000000     2.916000000
O     3.044000000    -0.497000000    -4.654000000
H     2.420000000    -0.915000000    -4.061000000
H     3.687000000    -1.180000000    -4.846000000
O    -1.950000000     4.374000000    -4.224000000
H    -1.521000000     4.943000000    -4.864000000
H    -1.274000000     4.196000000    -3.571000000
O    -4.271000000     0.753000000    -2.884000000
H    -4.103000000     0.758000000    -1.942000000
H    -3.469000000     1.102000000    -3.273000000
O     5.268000000     2.984000000     0.851000000
H     5.538000000     2.460000000     1.606000000
H     4.311000000     2.969000000     0.879000000
O     0.261000000    -6.214000000    -4.237000000
H     0.222000000    -6.207000000    -3.281000000
H     1.050000000    -6.716000000    -4.441000000
O     0.000000000    -5.321000000    -1.011000000
H    -0.434000000    -5.471000000    -0.171000000
H     0.508000000    -4.521000000    -0.879000000
O     4.337000000     1.934000000    -4.063000000
H     5.053000000     1.587000000    -4.594000000
H     3.670000000     1.248000000    -4.082000000
O    -6.882000000    -3.783000000    -3.093000000
H    -6.007000000    -3.821000000    -2.707000000
H    -6.921000000    -2.924000000    -3.514000000
O    -0.644000000    -2.116000000     6.666000000
H    -0.055000000    -2.232000000     5.920000000
H    -1.516000000    -2.292000000     6.312000000
O     0.255000000    -7.890000000    -1.768000000
H    -0.663000000    -8.110000000    -1.925000000
H     0.227000000    -7.025000000    -1.358000000
O     4.356000000     6.228000000    -0.352000000
H     4.497000000     5.373000000    -0.759000000
H     3.647000000     6.621000000    -0.862000000
O     5.648000000     1.133000000    -0.844000000
H     5.469000000     1.828000000    -0.210000000
H     5.336000000     1.484000000    -1.678000000
O     1.847000000     3.856000000    -4.165000000
H     1.499000000     4.412000000    -3.467000000
H     2.130000000     3.059000000    -3.717000000
O    -2.381000000     0.832000000     2.452000000
H    -1.804000000     0.069000000     2.460000000
H    -3.022000000     0.656000000     3.141000000
O    -2.086000000     1.385000000    -4.540000000
H    -1.246000000     1.022000000    -4.820000000
H    -1.985000000     2.331000000    -4.647000000
O    -0.377000000    -3.574000000    -5.526000000
H    -0.392000000    -4.478000000    -5.213000000
H    -1.249000000    -3.235000000    -5.321000000
O     0.255000000    -3.603000000     3.365000000
H     1.005000000    -4.186000000     3.249000000
H     0.639000000    -2.729000000     3.436000000
O     2.956000000    -3.811000000     3.002000000
H     3.338000000    -2.936000000     2.943000000
H     2.907000000    -3.988000000     3.941000000
O     0.512000000     4.979000000    -2.017000000
H     0.942000000     5.819000000    -1.859000000
H     0.544000000     4.531000000    -1.172000000
O     7.584000000     4.193000000    -0.040000000
H     6.733000000     3.761000000    -0.110000000
H     7.473000000     4.827000000     0.669000000
O    -4.731000000     0.155000000    -0.103000000
H    -4.735000000     0.279000000     0.846000000
H    -5.439000000    -0.467000000    -0.267000000
O    -0.758000000     4.245000000     1.859000000
H    -0.585000000     3.426000000     2.325000000
H     0.081000000     4.705000000     1.865000000
O    -2.782000000     3.682000000     0.027000000
H    -2.097000000     3.977000000     0.626000000
H    -2.751000000     2.727000000     0.079000000
O    -2.884000000    -1.785000000    -4.047000000
H    -1.940000000    -1.635000000    -4.003000000
H    -3.270000000    -1.008000000    -3.642000000
O    -3.802000000    -5.370000000     4.097000000
H    -3.473000000    -4.662000000     4.650000000
H    -3.114000000    -6.034000000     4.123000000
O     5.085000000    -1.773000000    -2.547000000
H     4.751000000    -2.640000000    -2.319000000
H     4.849000000    -1.222000000    -1.800000000
O     3.741000000    -1.230000000    -0.090000000
H     4.087000000    -1.658000000     0.693000000
H     4.165000000    -0.372000000    -0.101000000
O    -3.646000000    -0.183000000     4.534000000
H    -4.596000000    -0.190000000     4.423000000
H    -3.492000000     0.446000000     5.240000000
O    -3.087000000    -2.845000000     5.452000000
H    -3.636000000    -2.702000000     6.223000000
H    -3.004000000    -1.978000000     5.053000000
O    -3.428000000    -4.112000000    -4.786000000
H    -3.314000000    -3.194000000    -4.538000000
H    -4.372000000    -4.261000000    -4.723000000
O    -6.408000000    -0.829000000    -3.828000000
H    -6.290000000    -0.339000000    -4.642000000
H    -5.651000000    -0.588000000    -3.293000000
O    -6.294000000    -2.107000000    -0.269000000
H    -6.107000000    -3.037000000    -0.394000000
H    -7.082000000    -2.092000000     0.274000000
O     1.558000000    -3.086000000    -0.415000000
H     2.303000000    -3.361000000    -0.948000000
H     1.851000000    -2.279000000     0.008000000
O     0.187000000     0.723000000     5.660000000
H    -0.720000000     1.001000000     5.785000000
H     0.444000000     1.115000000     4.825000000
O    -4.193000000    -4.692000000     1.084000000
H    -3.937000000    -5.373000000     1.706000000
H    -4.454000000    -3.953000000     1.632000000
O     1.112000000    -1.535000000    -3.035000000
H     0.615000000    -1.017000000    -2.403000000
H     1.266000000    -2.370000000    -2.593000000
O     5.482000000     1.577000000     3.459000000
H     6.105000000     1.761000000     4.162000000
H     4.885000000     2.325000000     3.466000000
O    -4.428000000    -4.330000000    -1.807000000
H    -3.761000000    -4.774000000    -2.331000000
H    -4.166000000    -4.488000000    -0.900000000
O     2.973000000     3.708000000     4.728000000
H     3.379000000     3.464000000     5.560000000
H     2.853000000     4.656000000     4.789000000
O    -0.077000000    -0.153000000    -5.319000000
H     0.221000000    -0.391000000    -6.197000000
H     0.666000000    -0.356000000    -4.750000000
O    -1.026000000    -5.242000000     1.525000000
H    -1.930000000    -5.253000000     1.839000000
H    -0.676000000    -4.405000000     1.830000000
O     1.944000000    -1.545000000     5.075000000
H     1.371000000    -0.893000000     5.478000000
H     2.183000000    -2.130000000     5.793000000
O     2.519000000     6.818000000     4.639000000
H     2.508000000     7.773000000     4.691000000
H     2.611000000     6.630000000     3.705000000
O     2.525000000     5.988000000     1.900000000
H     2.581000000     5.047000000     1.737000000
H     3.104000000     6.380000000     1.246000000
O     4.298000000     4.329000000    -2.122000000
H     4.517000000     4.020000000    -3.001000000
H     3.977000000     3.550000000    -1.668000000
