144
-2819.42657
O     1.627000000    -2.085000000     2.440000000
H     2.044000000    -2.022000000     1.581000000
H     0.998000000    -1.364000000     2.455000000
O    -6.629000000    -0.938000000     3.201000000
H    -5.683000000    -0.838000000     3.090000000
H    -6.721000000    -1.487000000     3.980000000
O    -5.278000000    -2.702000000    -0.409000000
H    -6.204000000    -2.944000000    -0.423000000
H    -5.169000000    -2.128000000    -1.167000000
O     2.899000000    -1.669000000    -2.641000000
H     3.578000000    -1.173000000    -3.100000000
H     3.036000000    -2.575000000    -2.919000000
O    -3.805000000    -0.866000000     3.271000000
H    -3.275000000    -0.882000000     4.067000000
H    -3.771000000    -1.765000000     2.942000000
O    -3.948000000    -3.200000000     1.920000000
H    -4.205000000    -2.825000000     1.077000000
H    -3.058000000    -3.521000000     1.778000000
O     2.997000000     1.162000000     5.209000000
H     3.173000000     1.899000000     4.624000000
H     3.363000000     1.432000000     6.052000000
O     0.052000000     0.581000000     4.830000000
H     0.736000000    -0.013000000     5.138000000
H     0.496000000     1.153000000     4.203000000
O     4.194000000     2.173000000    -2.898000000
H     4.449000000     2.769000000    -3.602000000
H     4.261000000     1.301000000    -3.287000000
O    -2.430000000     2.389000000     6.161000000
H    -1.758000000     1.720000000     6.027000000
H    -2.327000000     2.652000000     7.076000000
O     2.760000000     5.492000000     6.404000000
H     3.557000000     5.131000000     6.792000000
H     2.297000000     4.730000000     6.056000000
O    -0.737000000     6.457000000     0.167000000
H    -1.369000000     6.897000000     0.736000000
H    -0.339000000     5.788000000     0.724000000
O     0.050000000    -6.107000000    -2.308000000
H    -0.245000000    -6.808000000    -1.727000000
H     0.990000000    -6.038000000    -2.142000000
O     1.560000000     3.954000000    -3.087000000
H     2.036000000     3.522000000    -2.378000000
H     1.849000000     4.866000000    -3.048000000
O     1.051000000     1.561000000    -4.811000000
H     1.288000000     2.106000000    -5.561000000
H     1.063000000     2.162000000    -4.066000000
O    -2.302000000    -4.748000000    -2.860000000
H    -2.737000000    -4.703000000    -2.009000000
H    -1.465000000    -5.175000000    -2.679000000
O    -3.975000000     2.974000000     3.791000000
H    -3.613000000     2.569000000     4.579000000
H    -4.900000000     3.111000000     3.996000000
O     1.600000000    -0.843000000    -5.596000000
H     1.215000000    -0.034000000    -5.257000000
H     2.427000000    -0.568000000    -5.991000000
O    -4.364000000     1.281000000     1.855000000
H    -4.400000000     0.466000000     2.355000000
H    -4.297000000     1.967000000     2.520000000
O     0.408000000    -3.964000000     0.281000000
H     0.286000000    -4.066000000    -0.662000000
H     1.240000000    -3.497000000     0.366000000
O    -3.402000000     2.579000000    -3.095000000
H    -2.900000000     2.879000000    -3.852000000
H    -2.739000000     2.278000000    -2.472000000
O    -4.440000000    -5.440000000    -4.230000000
H    -4.245000000    -5.473000000    -5.167000000
H    -3.666000000    -5.037000000    -3.838000000
O     2.266000000     6.358000000     2.106000000
H     3.024000000     6.383000000     2.690000000
H     1.910000000     7.246000000     2.138000000
O    -5.683000000     1.193000000    -3.197000000
H    -4.848000000     1.653000000    -3.115000000
H    -6.027000000     1.159000000    -2.305000000
O     2.695000000     4.625000000    -0.347000000
H     2.586000000     3.845000000     0.196000000
H     2.387000000     5.345000000     0.203000000
O     2.884000000    -3.396000000    -6.287000000
H     2.451000000    -2.673000000    -5.834000000
H     2.188000000    -4.036000000    -6.437000000
O    -1.832000000    -4.725000000     1.946000000
H    -0.977000000    -4.563000000     1.546000000
H    -1.628000000    -5.085000000     2.809000000
O    -0.719000000    -2.263000000    -6.272000000
H    -0.795000000    -2.146000000    -7.219000000
H    -0.027000000    -1.657000000    -6.010000000
O     1.945000000    -1.323000000     5.784000000
H     2.646000000    -1.969000000     5.694000000
H     2.398000000    -0.480000000     5.802000000
O     6.558000000     2.270000000     2.288000000
H     5.829000000     2.422000000     2.889000000
H     6.140000000     2.080000000     1.448000000
O     4.483000000     6.513000000     3.847000000
H     4.967000000     5.794000000     3.442000000
H     5.013000000     6.763000000     4.604000000
O     0.060000000    -4.780000000    -5.257000000
H     0.035000000    -4.644000000    -4.309000000
H    -0.233000000    -3.947000000    -5.626000000
O     1.469000000     3.381000000     5.372000000
H     0.734000000     3.050000000     5.887000000
H     1.271000000     3.115000000     4.474000000
O    -5.916000000    -1.578000000    -3.837000000
H    -5.967000000    -0.624000000    -3.772000000
H    -5.030000000    -1.750000000    -4.155000000
O     4.782000000     6.060000000    -1.300000000
H     4.396000000     6.888000000    -1.583000000
H     4.038000000     5.541000000    -0.993000000
O    -1.943000000     5.364000000     3.856000000
H    -2.551000000     4.710000000     3.511000000
H    -1.134000000     5.223000000     3.364000000
O     3.213000000    -2.107000000     0.011000000
H     4.063000000    -1.822000000     0.345000000
H     3.215000000    -1.840000000    -0.908000000
O    -3.400000000    -5.176000000    -0.147000000
H    -3.923000000    -4.382000000    -0.035000000
H    -2.826000000    -5.196000000     0.619000000
O    -4.403000000    -7.197000000    -1.832000000
H    -3.995000000    -6.548000000    -1.259000000
H    -4.777000000    -6.683000000    -2.547000000
O    -2.664000000     3.114000000     0.570000000
H    -2.147000000     2.567000000    -0.021000000
H    -3.259000000     2.503000000     1.004000000
O    -2.019000000    -0.869000000     5.563000000
H    -1.375000000    -1.569000000     5.669000000
H    -1.510000000    -0.119000000     5.256000000
O     5.148000000    -0.348000000     3.988000000
H     4.868000000    -0.644000000     3.122000000
H     4.343000000    -0.054000000     4.413000000
O    -3.701000000    -1.806000000    -6.454000000
H    -2.811000000    -1.757000000    -6.105000000
H    -3.797000000    -1.011000000    -6.979000000
O     0.043000000     4.649000000     2.316000000
H     0.830000000     5.188000000     2.399000000
H     0.330000000     3.767000000     2.553000000
O    -0.585000000     2.463000000    -1.644000000
H    -0.055000000     1.769000000    -1.252000000
H     0.052000000     3.044000000    -2.061000000
O    -5.930000000     1.815000000    -0.414000000
H    -6.206000000     2.698000000    -0.166000000
H    -5.242000000     1.594000000     0.213000000
O     3.982000000     3.482000000     3.371000000
H     3.407000000     4.126000000     3.783000000
H     3.418000000     3.017000000     2.754000000
O     4.773000000     1.538000000    -0.108000000
H     4.477000000     1.724000000    -0.998000000
H     4.076000000     1.877000000     0.453000000
