144
-2843.59260
O    -1.604000000     0.464000000     3.866000000
H    -1.449000000     1.351000000     3.542000000
H    -0.728000000     0.093000000     3.976000000
O     3.380000000     3.840000000    -1.781000000
H     3.616000000     3.925000000    -0.857000000
H     3.358000000     4.740000000    -2.106000000
O    -2.313000000    -4.533000000    -0.969000000
H    -1.518000000    -4.997000000    -0.705000000
H    -2.158000000    -4.293000000    -1.883000000
O     2.119000000    -1.161000000    -5.081000000
H     1.225000000    -1.457000000    -4.910000000
H     2.163000000    -1.069000000    -6.033000000
O     4.848000000    -0.445000000    -4.011000000
H     4.814000000     0.291000000    -3.400000000
H     4.155000000    -0.262000000    -4.645000000
O     3.321000000     0.763000000     5.197000000
H     2.775000000     0.712000000     4.412000000
H     4.164000000     1.088000000     4.881000000
O     4.740000000    -1.795000000     6.120000000
H     4.889000000    -1.749000000     5.176000000
H     4.905000000    -0.905000000     6.432000000
O     2.453000000    -4.450000000    -0.679000000
H     3.050000000    -3.746000000    -0.934000000
H     2.794000000    -4.761000000     0.159000000
O     5.884000000     1.366000000     4.282000000
H     6.729000000     1.299000000     4.726000000
H     5.782000000     0.527000000     3.834000000
O    -1.072000000    -6.427000000    -3.365000000
H    -0.542000000    -5.630000000    -3.349000000
H    -1.197000000    -6.613000000    -4.295000000
O    -6.011000000    -0.532000000    -3.284000000
H    -5.109000000    -0.264000000    -3.460000000
H    -5.927000000    -1.336000000    -2.772000000
O    -4.147000000     3.692000000     3.484000000
H    -4.539000000     3.732000000     4.357000000
H    -4.444000000     4.493000000     3.052000000
O     8.018000000    -2.560000000     1.960000000
H     7.244000000    -2.760000000     1.433000000
H     8.025000000    -1.605000000     2.021000000
O     1.293000000     0.253000000     7.064000000
H     0.934000000     1.056000000     7.442000000
H     2.077000000     0.539000000     6.595000000
O     2.992000000    -3.106000000     1.818000000
H     2.447000000    -3.336000000     2.570000000
H     2.978000000    -2.149000000     1.796000000
O    -5.364000000    -3.445000000    -2.533000000
H    -5.196000000    -3.513000000    -1.593000000
H    -4.992000000    -4.246000000    -2.902000000
O    -0.390000000     3.049000000    -4.723000000
H    -0.078000000     2.740000000    -3.872000000
H     0.383000000     3.015000000    -5.287000000
O    -4.745000000    -3.689000000    -0.067000000
H    -3.840000000    -3.734000000    -0.375000000
H    -4.726000000    -3.042000000     0.639000000
O     0.798000000     2.256000000    -2.091000000
H     1.608000000     2.730000000    -1.902000000
H     0.853000000     1.464000000    -1.556000000
O     5.272000000     1.819000000    -2.461000000
H     5.598000000     1.333000000    -1.704000000
H     4.658000000     2.454000000    -2.092000000
O     0.667000000    -1.030000000     3.839000000
H     1.423000000    -0.462000000     3.692000000
H     0.813000000    -1.404000000     4.708000000
O    -2.429000000     4.193000000    -3.264000000
H    -1.642000000     4.103000000    -3.802000000
H    -3.082000000     3.646000000    -3.701000000
O    -0.524000000    -2.190000000    -5.438000000
H    -0.358000000    -2.963000000    -5.976000000
H    -1.079000000    -1.633000000    -5.983000000
O    -1.508000000     6.482000000     1.396000000
H    -1.222000000     6.725000000     2.276000000
H    -0.799000000     5.937000000     1.055000000
O     1.030000000     3.437000000     4.084000000
H     1.495000000     2.605000000     3.990000000
H     0.141000000     3.249000000     3.785000000
O     5.714000000    -3.330000000     0.802000000
H     4.902000000    -3.673000000     1.176000000
H     5.616000000    -3.460000000    -0.141000000
O     1.153000000    -4.625000000    -3.393000000
H     1.531000000    -3.762000000    -3.563000000
H     1.878000000    -5.137000000    -3.033000000
O    -4.141000000     0.953000000     2.878000000
H    -4.047000000     1.905000000     2.882000000
H    -3.298000000     0.627000000     3.193000000
O    -1.567000000     0.358000000    -6.508000000
H    -0.871000000     0.991000000    -6.333000000
H    -1.580000000     0.274000000    -7.462000000
O     5.779000000     0.117000000    -0.027000000
H     5.023000000    -0.135000000     0.504000000
H     6.084000000     0.935000000     0.364000000
O    -0.929000000    -2.185000000     1.814000000
H    -0.297000000    -1.874000000     2.462000000
H    -0.884000000    -1.541000000     1.107000000
O    -5.371000000     2.169000000    -1.020000000
H    -5.913000000     2.354000000    -1.787000000
H    -5.503000000     1.236000000    -0.854000000
O     5.287000000    -1.131000000     3.016000000
H     5.349000000    -1.966000000     2.552000000
H     4.503000000    -0.715000000     2.657000000
O     3.628000000    -3.358000000    -4.263000000
H     3.332000000    -2.448000000    -4.231000000
H     3.969000000    -3.468000000    -5.150000000
O     5.728000000     3.723000000     3.026000000
H     5.688000000     2.839000000     3.389000000
H     5.560000000     4.297000000     3.773000000
O    -2.280000000    -4.427000000     2.123000000
H    -1.579000000    -3.775000000     2.130000000
H    -2.420000000    -4.618000000     1.196000000
O    -2.109000000    -3.530000000    -3.555000000
H    -2.751000000    -3.146000000    -4.152000000
H    -1.270000000    -3.169000000    -3.841000000
O    -3.223000000     3.886000000    -0.625000000
H    -3.927000000     3.241000000    -0.703000000
H    -3.038000000     4.148000000    -1.526000000
O    -0.565000000     4.113000000     0.233000000
H    -0.332000000     3.231000000    -0.056000000
H    -1.494000000     4.198000000     0.019000000
O     4.355000000     4.685000000     0.916000000
H     4.760000000     4.231000000     1.655000000
H     4.990000000     5.359000000     0.672000000
O    -4.592000000    -1.805000000     1.871000000
H    -4.820000000    -2.294000000     2.662000000
H    -3.772000000    -1.362000000     2.091000000
O    -6.252000000    -0.385000000     0.218000000
H    -5.500000000    -0.621000000     0.760000000
H    -6.544000000    -1.215000000    -0.161000000
O     0.078000000    -5.852000000     0.259000000
H     0.531000000    -6.288000000     0.981000000
H     0.755000000    -5.326000000    -0.166000000
O     1.277000000     6.144000000     3.658000000
H     0.384000000     6.261000000     3.981000000
H     1.573000000     5.329000000     4.063000000
O    -1.505000000     3.117000000     3.020000000
H    -2.298000000     3.653000000     3.023000000
H    -1.182000000     3.172000000     2.121000000
O    -3.743000000     0.237000000    -4.954000000
H    -3.936000000     1.072000000    -4.528000000
H    -2.930000000     0.395000000    -5.434000000
O     4.695000000    -2.064000000    -1.537000000
H     4.942000000    -1.841000000    -2.435000000
H     5.148000000    -1.417000000    -0.997000000
O    -4.131000000    -2.439000000    -5.448000000
H    -3.956000000    -1.499000000    -5.509000000
H    -4.829000000    -2.511000000    -4.797000000
