144
-2838.71302
O     0.647000000     3.989000000     2.785000000
H     1.304000000     4.527000000     3.226000000
H    -0.128000000     4.548000000     2.739000000
O     2.233000000    -6.819000000     0.573000000
H     1.378000000    -6.418000000     0.725000000
H     2.575000000    -6.371000000    -0.201000000
O    -6.730000000     3.651000000     1.556000000
H    -6.845000000     2.727000000     1.335000000
H    -5.782000000     3.764000000     1.631000000
O    -7.780000000    -1.991000000    -2.299000000
H    -8.573000000    -1.463000000    -2.204000000
H    -7.064000000    -1.383000000    -2.116000000
O    -5.562000000    -0.815000000    -4.730000000
H    -6.332000000    -0.323000000    -5.018000000
H    -5.337000000    -0.431000000    -3.882000000
O     4.172000000    -2.511000000    -2.985000000
H     3.699000000    -2.266000000    -3.780000000
H     4.657000000    -1.723000000    -2.742000000
O    -2.517000000    -2.985000000    -2.595000000
H    -3.037000000    -3.376000000    -3.297000000
H    -3.156000000    -2.773000000    -1.914000000
O     0.217000000    -5.315000000    -1.839000000
H     0.059000000    -4.488000000    -2.293000000
H    -0.650000000    -5.603000000    -1.555000000
O    -1.870000000    -2.907000000     4.713000000
H    -2.389000000    -2.742000000     3.926000000
H    -1.224000000    -2.201000000     4.725000000
O    -5.933000000     0.850000000     1.257000000
H    -6.006000000    -0.001000000     1.688000000
H    -5.027000000     0.886000000     0.950000000
O    -4.013000000     3.348000000     2.279000000
H    -3.959000000     2.603000000     1.680000000
H    -3.318000000     3.939000000     1.990000000
O     3.492000000    -3.468000000     1.800000000
H     3.236000000    -3.569000000     0.883000000
H     4.350000000    -3.889000000     1.857000000
O     2.134000000     1.053000000     4.163000000
H     1.685000000     1.718000000     4.685000000
H     2.936000000     1.484000000     3.865000000
O     7.178000000    -3.148000000     0.526000000
H     6.829000000    -3.946000000     0.130000000
H     6.535000000    -2.913000000     1.195000000
O    -4.264000000    -4.973000000     1.355000000
H    -4.363000000    -5.855000000     1.712000000
H    -3.329000000    -4.786000000     1.434000000
O    -7.050000000     2.589000000    -1.598000000
H    -7.848000000     2.824000000    -1.125000000
H    -6.905000000     3.319000000    -2.200000000
O     3.070000000    -1.045000000    -5.293000000
H     3.977000000    -0.918000000    -5.573000000
H     2.697000000    -0.164000000    -5.286000000
O     2.996000000    -3.896000000    -1.022000000
H     2.107000000    -4.006000000    -1.360000000
H     3.469000000    -3.456000000    -1.729000000
O     5.769000000    -1.488000000     2.137000000
H     5.557000000    -1.290000000     1.224000000
H     6.332000000    -0.766000000     2.414000000
O     2.747000000    -1.690000000     3.608000000
H     2.441000000    -0.925000000     3.121000000
H     3.009000000    -2.315000000     2.932000000
O    -2.021000000     2.170000000    -3.404000000
H    -2.252000000     1.251000000    -3.267000000
H    -2.669000000     2.658000000    -2.896000000
O     2.911000000     2.909000000     1.475000000
H     2.103000000     3.316000000     1.790000000
H     3.153000000     2.292000000     2.165000000
O    -3.394000000    -2.321000000     2.538000000
H    -4.335000000    -2.152000000     2.587000000
H    -3.130000000    -1.965000000     1.690000000
O     4.629000000     1.351000000     3.439000000
H     5.060000000     0.674000000     2.917000000
H     5.162000000     1.417000000     4.231000000
O     1.167000000    -4.472000000     2.894000000
H     1.461000000    -4.768000000     3.756000000
H     1.958000000    -4.138000000     2.473000000
O    -4.997000000     1.531000000     4.618000000
H    -5.131000000     1.744000000     3.695000000
H    -4.216000000     2.027000000     4.867000000
O     2.132000000     4.784000000    -0.583000000
H     2.809000000     4.375000000    -0.044000000
H     1.356000000     4.241000000    -0.444000000
O    -4.061000000     3.063000000    -1.610000000
H    -3.896000000     2.652000000    -0.762000000
H    -4.968000000     2.837000000    -1.814000000
O    -5.324000000     0.237000000    -2.223000000
H    -5.807000000     1.044000000    -2.047000000
H    -5.025000000    -0.056000000    -1.363000000
O    -4.994000000    -3.322000000    -3.496000000
H    -5.111000000    -2.923000000    -2.635000000
H    -5.181000000    -2.617000000    -4.115000000
O     5.244000000     0.175000000    -3.094000000
H     4.818000000     1.031000000    -3.147000000
H     5.532000000    -0.005000000    -3.989000000
O    -2.232000000     2.506000000     5.319000000
H    -1.896000000     2.183000000     4.482000000
H    -2.742000000     3.283000000     5.088000000
O     0.206000000    -1.053000000     4.536000000
H     1.132000000    -1.232000000     4.371000000
H     0.107000000    -0.119000000     4.352000000
O    -5.016000000    -2.495000000    -0.855000000
H    -4.553000000    -1.780000000    -0.418000000
H    -5.556000000    -2.885000000    -0.168000000
O     0.154000000    -2.691000000    -2.645000000
H     0.317000000    -1.757000000    -2.772000000
H    -0.775000000    -2.744000000    -2.422000000
O    -2.189000000     5.656000000    -0.346000000
H    -1.914000000     6.296000000    -1.002000000
H    -2.701000000     5.014000000    -0.837000000
O    -1.988000000    -5.793000000    -0.546000000
H    -1.882000000    -5.384000000     0.312000000
H    -2.923000000    -5.716000000    -0.735000000
O     0.553000000    -0.063000000    -2.939000000
H     0.294000000     0.102000000    -2.032000000
H     1.175000000     0.635000000    -3.142000000
O    -0.777000000     1.504000000     3.126000000
H    -0.768000000     1.088000000     2.264000000
H    -0.454000000     2.391000000     2.968000000
O    -6.034000000    -1.537000000     2.676000000
H    -6.245000000    -2.392000000     2.301000000
H    -6.360000000    -1.582000000     3.575000000
O     6.870000000     3.892000000    -1.956000000
H     6.590000000     3.316000000    -1.246000000
H     7.785000000     4.093000000    -1.756000000
O    -1.559000000    -4.308000000     1.707000000
H    -1.717000000    -3.692000000     2.422000000
H    -0.675000000    -4.639000000     1.867000000
O     1.860000000    -3.652000000    -4.825000000
H     1.149000000    -3.349000000    -4.260000000
H     2.208000000    -2.853000000    -5.221000000
O     3.291000000     2.701000000    -3.179000000
H     2.535000000     2.896000000    -2.625000000
H     3.757000000     3.534000000    -3.251000000
O    -1.905000000     5.106000000     2.564000000
H    -1.914000000     5.222000000     1.614000000
H    -1.951000000     5.996000000     2.915000000
O     5.941000000     2.500000000     0.600000000
H     5.029000000     2.597000000     0.324000000
H     6.188000000     1.623000000     0.305000000
O     0.396000000     3.099000000    -2.667000000
H    -0.397000000     2.633000000    -2.933000000
H     0.422000000     3.870000000    -3.234000000
O     6.347000000     0.158000000    -0.586000000
H     5.940000000     0.407000000    -1.416000000
H     7.059000000    -0.431000000    -0.836000000
