144
-2816.65760
O    -4.398000000    -2.011000000     2.601000000
H    -3.822000000    -2.136000000     1.846000000
H    -5.265000000    -2.266000000     2.285000000
O    -1.371000000    -0.716000000     4.355000000
H    -1.029000000    -1.566000000     4.075000000
H    -0.661000000    -0.101000000     4.172000000
O    -5.592000000     1.222000000     1.540000000
H    -4.982000000     1.141000000     2.274000000
H    -6.368000000     1.637000000     1.918000000
O     3.601000000    -3.850000000     2.181000000
H     3.693000000    -2.937000000     2.453000000
H     3.569000000    -3.813000000     1.225000000
O     0.160000000    -3.002000000     0.852000000
H     0.399000000    -3.587000000     0.134000000
H     0.322000000    -2.123000000     0.509000000
O    -0.904000000     5.429000000    -2.834000000
H    -1.078000000     5.967000000    -2.061000000
H    -1.014000000     4.528000000    -2.528000000
O     0.929000000     6.288000000     3.555000000
H     0.562000000     6.606000000     4.379000000
H     1.235000000     5.403000000     3.755000000
O     0.744000000     1.516000000     6.387000000
H     1.525000000     1.017000000     6.625000000
H     0.701000000     1.452000000     5.433000000
O     5.858000000    -1.936000000     0.572000000
H     5.531000000    -1.404000000    -0.154000000
H     5.169000000    -1.888000000     1.234000000
O    -0.137000000    -3.133000000     3.579000000
H    -0.119000000    -3.170000000     2.623000000
H     0.568000000    -2.527000000     3.809000000
O     7.379000000     0.785000000     4.422000000
H     6.841000000     0.827000000     3.631000000
H     8.268000000     0.640000000     4.100000000
O     4.160000000    -1.158000000     2.701000000
H     4.427000000    -1.012000000     3.609000000
H     3.718000000    -0.348000000     2.448000000
O     2.201000000     2.744000000    -2.220000000
H     2.703000000     2.432000000    -2.973000000
H     2.607000000     2.315000000    -1.467000000
O    -4.711000000     4.022000000    -4.685000000
H    -4.099000000     3.357000000    -4.367000000
H    -4.180000000     4.587000000    -5.246000000
O    -3.276000000     1.525000000     6.201000000
H    -2.995000000     1.048000000     6.982000000
H    -2.477000000     1.932000000     5.868000000
O     4.494000000     1.798000000     4.137000000
H     5.175000000     2.008000000     3.499000000
H     3.711000000     1.638000000     3.609000000
O    -2.568000000    -2.223000000    -5.452000000
H    -1.976000000    -1.496000000    -5.647000000
H    -2.186000000    -2.642000000    -4.680000000
O     0.530000000     3.357000000    -4.455000000
H     0.793000000     3.101000000    -3.571000000
H     1.152000000     4.042000000    -4.700000000
O    -2.848000000    -3.256000000     0.659000000
H    -2.012000000    -3.348000000     1.115000000
H    -2.843000000    -3.955000000     0.005000000
O    -2.670000000     2.286000000    -4.014000000
H    -2.416000000     2.206000000    -3.095000000
H    -1.854000000     2.489000000    -4.471000000
O     2.455000000    -0.645000000    -4.242000000
H     1.975000000    -1.469000000    -4.327000000
H     1.974000000    -0.029000000    -4.795000000
O     1.838000000    -2.072000000     5.136000000
H     2.066000000    -1.318000000     5.680000000
H     2.630000000    -2.608000000     5.125000000
O     5.358000000    -0.698000000    -4.864000000
H     5.637000000    -1.420000000    -4.302000000
H     4.422000000    -0.847000000    -4.998000000
O    -5.201000000    -1.051000000    -0.578000000
H    -4.979000000    -0.129000000    -0.709000000
H    -4.379000000    -1.459000000    -0.305000000
O     1.212000000    -3.498000000    -4.003000000
H     0.789000000    -4.047000000    -4.663000000
H     0.923000000    -3.863000000    -3.167000000
O     0.868000000     3.606000000     3.426000000
H     0.923000000     2.677000000     3.648000000
H     0.110000000     3.669000000     2.844000000
O    -1.164000000     3.532000000     5.783000000
H    -0.917000000     4.271000000     5.227000000
H    -0.368000000     3.004000000     5.847000000
O     1.371000000     1.390000000    -5.766000000
H     0.872000000     2.185000000    -5.577000000
H     2.287000000     1.665000000    -5.714000000
O     3.682000000     1.924000000     0.100000000
H     3.170000000     1.646000000     0.859000000
H     4.196000000     2.667000000     0.416000000
O    -4.416000000     0.421000000     3.790000000
H    -3.677000000     0.544000000     4.386000000
H    -4.375000000    -0.504000000     3.545000000
O    -5.615000000     1.270000000    -2.351000000
H    -4.878000000     1.170000000    -2.953000000
H    -6.390000000     1.194000000    -2.906000000
O     6.762000000     2.660000000     2.324000000
H     7.113000000     2.581000000     1.437000000
H     7.364000000     3.258000000     2.768000000
O     0.226000000    -2.652000000     7.354000000
H     0.793000000    -2.945000000     8.068000000
H     0.829000000    -2.301000000     6.699000000
O     3.064000000    -3.523000000    -1.364000000
H     2.194000000    -3.912000000    -1.447000000
H     2.989000000    -2.675000000    -1.802000000
O    -3.523000000     3.175000000     0.675000000
H    -4.223000000     2.552000000     0.872000000
H    -3.978000000     3.992000000     0.474000000
O    -5.790000000    -2.898000000    -2.556000000
H    -5.487000000    -2.206000000    -1.968000000
H    -6.443000000    -2.472000000    -3.111000000
O    -1.406000000     2.644000000    -1.553000000
H    -2.044000000     2.872000000    -0.877000000
H    -0.719000000     2.170000000    -1.084000000
O     3.113000000     0.432000000     6.855000000
H     3.511000000     0.030000000     7.627000000
H     3.815000000     0.450000000     6.205000000
O     0.890000000    -4.858000000    -0.978000000
H     1.091000000    -5.479000000    -0.278000000
H     0.726000000    -5.405000000    -1.746000000
O    -2.979000000    -3.958000000    -3.086000000
H    -2.927000000    -4.681000000    -2.460000000
H    -3.834000000    -3.560000000    -2.922000000
O     4.812000000     4.470000000     4.856000000
H     5.051000000     4.951000000     4.063000000
H     4.443000000     3.648000000     4.534000000
O    -1.225000000     3.905000000     1.846000000
H    -1.596000000     4.574000000     2.421000000
H    -1.985000000     3.491000000     1.437000000
O     5.022000000     4.600000000     0.046000000
H     4.702000000     5.136000000    -0.680000000
H     4.312000000     4.619000000     0.688000000
O    -1.070000000     0.230000000    -5.826000000
H    -0.780000000     0.069000000    -6.724000000
H    -0.378000000     0.771000000    -5.445000000
O    -4.393000000    -0.254000000    -4.945000000
H    -3.695000000     0.354000000    -4.702000000
H    -3.934000000    -1.043000000    -5.232000000
O     3.266000000     3.855000000     2.244000000
H     2.509000000     4.420000000     2.399000000
H     3.028000000     3.020000000     2.645000000
O     4.646000000    -0.235000000    -1.214000000
H     4.811000000     0.222000000    -2.039000000
H     4.419000000     0.461000000    -0.596000000
O    -2.306000000    -5.389000000    -5.205000000
H    -2.514000000    -4.927000000    -4.393000000
H    -2.098000000    -4.694000000    -5.829000000
