144
-2808.17166
O    -4.476000000    -0.296000000     5.124000000
H    -5.029000000     0.485000000     5.156000000
H    -3.600000000     0.039000000     4.931000000
O    -3.233000000    -2.670000000    -3.220000000
H    -4.010000000    -2.350000000    -2.761000000
H    -3.504000000    -2.727000000    -4.137000000
O     6.271000000    -5.215000000    -2.616000000
H     5.373000000    -5.145000000    -2.293000000
H     6.816000000    -5.020000000    -1.853000000
O    -1.870000000     4.359000000     0.252000000
H    -2.138000000     3.537000000     0.662000000
H    -0.914000000     4.344000000     0.286000000
O    -0.373000000     4.453000000     5.421000000
H    -0.073000000     4.018000000     6.219000000
H    -1.285000000     4.179000000     5.327000000
O     1.287000000    -3.120000000     2.167000000
H     1.551000000    -2.511000000     1.478000000
H     1.419000000    -2.633000000     2.981000000
O     4.070000000     3.856000000     4.822000000
H     4.970000000     3.992000000     5.120000000
H     4.152000000     3.258000000     4.079000000
O     7.176000000    -1.121000000    -0.219000000
H     6.792000000    -1.672000000     0.463000000
H     8.114000000    -1.307000000    -0.177000000
O     4.124000000     1.857000000     3.069000000
H     3.833000000     1.418000000     3.868000000
H     4.964000000     1.446000000     2.863000000
O     5.367000000     0.965000000    -0.303000000
H     5.362000000     1.155000000     0.635000000
H     5.814000000     0.121000000    -0.374000000
O    -6.250000000    -0.439000000    -4.111000000
H    -6.481000000     0.405000000    -4.500000000
H    -5.681000000    -0.215000000    -3.374000000
O    -4.750000000     4.048000000     1.802000000
H    -4.246000000     3.387000000     1.328000000
H    -5.653000000     3.734000000     1.763000000
O     6.840000000     3.188000000    -1.360000000
H     6.543000000     2.408000000    -0.890000000
H     6.117000000     3.809000000    -1.274000000
O     1.301000000     2.703000000     3.599000000
H     0.705000000     3.252000000     4.108000000
H     2.085000000     3.239000000     3.487000000
O    -6.244000000    -2.867000000     1.298000000
H    -6.454000000    -3.330000000     2.108000000
H    -6.687000000    -2.022000000     1.384000000
O     5.719000000    -2.399000000     1.777000000
H     5.270000000    -3.217000000     1.990000000
H     5.644000000    -1.871000000     2.571000000
O     3.986000000    -5.252000000    -1.456000000
H     3.178000000    -4.756000000    -1.586000000
H     3.744000000    -6.158000000    -1.647000000
O    -3.828000000     4.213000000    -1.676000000
H    -3.495000000     4.178000000    -2.573000000
H    -3.046000000     4.323000000    -1.134000000
O     4.333000000    -4.730000000     2.640000000
H     5.039000000    -5.363000000     2.768000000
H     3.770000000    -5.130000000     1.977000000
O     0.591000000     0.038000000     4.302000000
H     0.824000000     0.659000000     3.612000000
H    -0.250000000    -0.324000000     4.024000000
O    -2.280000000     1.112000000    -4.172000000
H    -2.909000000     1.095000000    -3.450000000
H    -2.658000000     0.532000000    -4.833000000
O     4.211000000     1.758000000    -2.549000000
H     3.936000000     0.880000000    -2.812000000
H     4.742000000     1.618000000    -1.765000000
O    -5.299000000     2.271000000     4.094000000
H    -5.201000000     2.017000000     3.176000000
H    -6.198000000     2.029000000     4.315000000
O    -0.068000000    -5.192000000    -1.335000000
H     0.284000000    -6.079000000    -1.417000000
H     0.510000000    -4.654000000    -1.875000000
O    -4.153000000     1.296000000    -2.349000000
H    -4.495000000     2.167000000    -2.549000000
H    -4.128000000     1.261000000    -1.393000000
O     2.798000000     4.273000000    -1.933000000
H     3.132000000     3.388000000    -2.083000000
H     3.583000000     4.819000000    -1.881000000
O    -1.632000000    -1.263000000     3.604000000
H    -2.287000000    -1.583000000     2.984000000
H    -1.901000000    -0.364000000     3.794000000
O     2.871000000    -0.531000000    -3.993000000
H     2.146000000    -0.123000000    -3.521000000
H     2.454000000    -0.995000000    -4.719000000
O     4.251000000    -3.441000000    -4.738000000
H     3.575000000    -3.256000000    -5.390000000
H     4.976000000    -2.862000000    -4.974000000
O    -2.402000000     1.457000000     3.524000000
H    -2.589000000     2.272000000     3.991000000
H    -2.726000000     1.610000000     2.636000000
O    -6.090000000     1.671000000     1.052000000
H    -5.235000000     1.309000000     0.819000000
H    -6.428000000     2.033000000     0.233000000
O    -3.248000000     3.967000000     5.056000000
H    -4.025000000     3.455000000     4.828000000
H    -3.265000000     4.710000000     4.453000000
O     1.259000000     4.935000000     0.317000000
H     1.838000000     4.848000000    -0.439000000
H     1.798000000     5.361000000     0.984000000
O     3.543000000     3.203000000    -5.091000000
H     3.857000000     2.791000000    -4.286000000
H     2.968000000     2.549000000    -5.487000000
O    -2.521000000    -5.319000000    -2.951000000
H    -1.901000000    -5.328000000    -2.221000000
H    -2.655000000    -4.390000000    -3.139000000
O    -2.988000000     5.699000000     3.250000000
H    -2.260000000     5.905000000     2.663000000
H    -3.649000000     5.302000000     2.683000000
O     1.894000000    -4.407000000    -3.020000000
H     2.591000000    -3.904000000    -3.441000000
H     1.599000000    -5.018000000    -3.696000000
O    -3.479000000    -2.185000000     1.826000000
H    -4.361000000    -2.545000000     1.728000000
H    -3.427000000    -1.496000000     1.163000000
O    -5.037000000    -1.842000000    -1.087000000
H    -4.385000000    -1.262000000    -0.693000000
H    -5.372000000    -2.359000000    -0.355000000
O     4.441000000     3.882000000     1.166000000
H     4.183000000     3.059000000     1.580000000
H     3.637000000     4.401000000     1.143000000
O     0.317000000     0.828000000    -3.550000000
H    -0.604000000     0.897000000    -3.801000000
H     0.312000000     0.268000000    -2.774000000
O     6.519000000     0.929000000     2.145000000
H     7.144000000     1.653000000     2.160000000
H     6.986000000     0.201000000     2.555000000
O     0.298000000    -5.617000000     1.461000000
H     0.488000000    -4.737000000     1.784000000
H    -0.081000000    -5.476000000     0.593000000
O    -2.524000000    -4.956000000     1.486000000
H    -2.565000000    -4.007000000     1.366000000
H    -1.602000000    -5.134000000     1.673000000
O    -3.833000000     6.355000000     0.253000000
H    -4.560000000     6.109000000     0.826000000
H    -3.434000000     5.523000000     0.002000000
O    -7.440000000    -0.558000000     1.987000000
H    -6.994000000     0.208000000     1.626000000
H    -8.039000000    -0.200000000     2.642000000
O     5.759000000    -1.002000000    -4.785000000
H     4.928000000    -0.971000000    -4.311000000
H     6.422000000    -0.812000000    -4.121000000
O     7.674000000    -0.358000000    -2.780000000
H     7.193000000    -0.706000000    -2.028000000
H     8.554000000    -0.726000000    -2.691000000
