144
-2806.57808
O     3.859000000    -4.348000000    -0.197000000
H     3.050000000    -4.471000000    -0.693000000
H     4.088000000    -5.225000000     0.110000000
O     3.267000000    -2.849000000    -3.882000000
H     3.213000000    -3.515000000    -3.196000000
H     2.875000000    -3.265000000    -4.650000000
O    -2.876000000     3.881000000     1.585000000
H    -3.099000000     3.033000000     1.202000000
H    -3.241000000     4.523000000     0.976000000
O    -1.713000000    -1.944000000     5.403000000
H    -1.112000000    -1.372000000     4.925000000
H    -1.417000000    -1.894000000     6.313000000
O     6.251000000    -1.595000000     2.598000000
H     6.066000000    -1.991000000     1.746000000
H     5.465000000    -1.090000000     2.803000000
O    -1.164000000    -4.323000000     0.570000000
H    -1.856000000    -4.175000000     1.215000000
H    -0.882000000    -3.444000000     0.315000000
O     2.585000000     3.338000000     1.853000000
H     3.312000000     2.867000000     1.445000000
H     2.045000000     3.629000000     1.118000000
O     6.264000000    -0.713000000    -2.112000000
H     6.032000000    -1.614000000    -1.890000000
H     5.496000000    -0.199000000    -1.860000000
O    -0.143000000     4.784000000     2.403000000
H     0.271000000     4.676000000     3.260000000
H    -1.068000000     4.597000000     2.560000000
O     5.624000000     2.726000000    -0.635000000
H     5.581000000     2.431000000     0.275000000
H     6.532000000     2.570000000    -0.895000000
O    -5.997000000     1.634000000    -2.622000000
H    -6.469000000     0.962000000    -3.114000000
H    -6.448000000     2.450000000    -2.838000000
O    -6.001000000     5.373000000    -0.295000000
H    -5.804000000     5.202000000    -1.216000000
H    -6.056000000     4.504000000     0.103000000
O     1.725000000     3.599000000     4.503000000
H     2.472000000     3.917000000     5.010000000
H     2.085000000     3.413000000     3.636000000
O     6.087000000    -2.677000000    -4.713000000
H     5.975000000    -1.851000000    -5.183000000
H     5.217000000    -2.875000000    -4.365000000
O    -6.435000000    -3.253000000     2.607000000
H    -5.883000000    -2.480000000     2.491000000
H    -6.109000000    -3.880000000     1.962000000
O     1.428000000    -0.926000000     3.735000000
H     1.177000000    -1.837000000     3.583000000
H     0.599000000    -0.471000000     3.881000000
O    -8.075000000     2.847000000     1.606000000
H    -7.289000000     2.867000000     1.060000000
H    -8.567000000     2.090000000     1.290000000
O     5.812000000    -2.689000000     0.294000000
H     6.545000000    -3.015000000    -0.228000000
H     5.063000000    -3.210000000     0.007000000
O     1.779000000    -5.351000000    -1.573000000
H     1.400000000    -5.256000000    -2.447000000
H     1.417000000    -6.173000000    -1.243000000
O    -2.222000000     3.429000000    -2.025000000
H    -3.042000000     3.639000000    -2.472000000
H    -2.174000000     2.473000000    -2.050000000
O     4.008000000    -0.243000000     3.547000000
H     3.153000000    -0.670000000     3.593000000
H     4.382000000    -0.361000000     4.420000000
O     3.163000000    -1.868000000     5.812000000
H     2.562000000    -1.415000000     6.402000000
H     2.713000000    -1.870000000     4.967000000
O     3.277000000     0.801000000    -6.054000000
H     2.608000000     0.751000000    -5.370000000
H     3.687000000    -0.064000000    -6.051000000
O    -0.726000000     0.390000000     4.443000000
H    -0.290000000     1.199000000     4.710000000
H    -1.565000000     0.677000000     4.084000000
O    -7.321000000    -0.341000000    -3.888000000
H    -8.111000000     0.132000000    -3.626000000
H    -7.221000000    -1.025000000    -3.226000000
O     4.423000000     5.357000000     2.732000000
H     3.723000000     4.764000000     2.458000000
H     5.202000000     4.804000000     2.777000000
O    -3.560000000    -1.780000000    -4.228000000
H    -3.476000000    -1.054000000    -3.610000000
H    -3.949000000    -1.386000000    -5.009000000
O     4.819000000     5.355000000    -0.830000000
H     5.047000000     4.439000000    -0.668000000
H     3.862000000     5.371000000    -0.804000000
O    -3.213000000     1.027000000    -2.912000000
H    -4.121000000     1.214000000    -3.152000000
H    -3.269000000     0.670000000    -2.025000000
O     4.309000000     1.127000000    -2.553000000
H     4.595000000     1.700000000    -1.842000000
H     4.827000000     1.405000000    -3.309000000
O    -0.199000000    -2.336000000    -6.038000000
H    -0.630000000    -2.758000000    -5.295000000
H     0.504000000    -1.818000000    -5.645000000
O    -2.980000000     1.465000000     3.580000000
H    -3.592000000     1.859000000     4.202000000
H    -3.393000000     1.592000000     2.726000000
O    -5.803000000     2.411000000    -0.093000000
H    -4.955000000     2.143000000     0.261000000
H    -5.782000000     2.125000000    -1.006000000
O    -8.340000000     0.185000000     0.470000000
H    -7.494000000     0.465000000     0.122000000
H    -8.179000000     0.034000000     1.401000000
O    -1.710000000    -3.809000000    -4.287000000
H    -2.256000000    -4.451000000    -4.741000000
H    -2.330000000    -3.164000000    -3.947000000
O    -2.043000000     5.882000000    -0.945000000
H    -2.086000000     6.416000000    -1.738000000
H    -1.752000000     5.022000000    -1.251000000
O    -2.542000000     4.441000000     4.303000000
H    -2.928000000     3.936000000     5.018000000
H    -2.721000000     3.921000000     3.519000000
O    -5.499000000    -0.446000000     1.997000000
H    -4.863000000    -0.439000000     2.712000000
H    -5.069000000     0.032000000     1.288000000
O     0.403000000    -5.373000000    -3.839000000
H    -0.189000000    -4.639000000    -4.006000000
H     0.254000000    -5.971000000    -4.572000000
O    -6.011000000    -1.558000000    -1.181000000
H    -5.154000000    -1.182000000    -0.982000000
H    -6.204000000    -2.124000000    -0.434000000
O    -5.919000000    -3.029000000    -3.666000000
H    -5.131000000    -2.507000000    -3.820000000
H    -6.113000000    -2.903000000    -2.737000000
O     1.424000000    -3.488000000     4.456000000
H     2.111000000    -3.772000000     5.059000000
H     0.729000000    -4.137000000     4.562000000
O     1.904000000     5.559000000     0.025000000
H     1.221000000     5.298000000     0.643000000
H     1.760000000     6.496000000    -0.110000000
O     0.894000000     2.724000000    -1.500000000
H     0.630000000     1.827000000    -1.294000000
H     0.335000000     3.270000000    -0.947000000
O     4.979000000     1.815000000     2.110000000
H     5.705000000     1.769000000     2.732000000
H     4.431000000     1.061000000     2.326000000
O    -5.167000000    -4.265000000     0.478000000
H    -4.737000000    -4.785000000    -0.201000000
H    -4.470000000    -4.059000000     1.100000000
O     1.878000000     1.531000000     6.065000000
H     1.759000000     2.282000000     5.484000000
H     1.193000000     1.629000000     6.727000000
O     2.329000000    -0.293000000    -3.673000000
H     2.869000000     0.205000000    -3.059000000
H     2.867000000    -1.050000000    -3.905000000
