144
-2805.55469
O    -3.563000000    -0.434000000     4.957000000
H    -4.233000000    -0.675000000     4.318000000
H    -3.130000000     0.330000000     4.574000000
O    -6.121000000    -2.136000000    -3.859000000
H    -5.407000000    -1.728000000    -3.369000000
H    -6.152000000    -3.035000000    -3.533000000
O     3.559000000    -6.657000000     2.120000000
H     3.076000000    -5.875000000     1.853000000
H     3.759000000    -7.106000000     1.299000000
O     2.132000000    -4.631000000     1.344000000
H     1.296000000    -4.166000000     1.354000000
H     2.282000000    -4.833000000     0.420000000
O     4.884000000    -4.206000000    -1.321000000
H     3.977000000    -4.045000000    -1.581000000
H     5.120000000    -3.443000000    -0.793000000
O    -1.723000000     4.675000000     1.600000000
H    -2.237000000     3.868000000     1.635000000
H    -1.990000000     5.094000000     0.782000000
O    -5.308000000     4.436000000     5.610000000
H    -5.375000000     5.286000000     5.175000000
H    -5.619000000     3.808000000     4.958000000
O    -0.225000000    -2.962000000     1.323000000
H    -0.838000000    -2.883000000     2.054000000
H    -0.101000000    -2.063000000     1.016000000
O     6.786000000     0.615000000    -0.065000000
H     6.400000000    -0.012000000     0.546000000
H     7.464000000     1.059000000     0.443000000
O     0.566000000     6.095000000     2.266000000
H     0.209000000     6.281000000     3.135000000
H    -0.163000000     5.703000000     1.786000000
O     4.939000000     2.629000000     0.125000000
H     4.939000000     2.947000000     1.028000000
H     5.702000000     2.053000000     0.074000000
O    -6.438000000     1.748000000    -2.607000000
H    -6.872000000     1.030000000    -2.146000000
H    -6.880000000     1.790000000    -3.455000000
O    -5.276000000     3.695000000     1.053000000
H    -5.526000000     3.753000000     0.131000000
H    -4.566000000     3.054000000     1.069000000
O     3.062000000     0.490000000     3.700000000
H     3.666000000     1.214000000     3.866000000
H     3.621000000    -0.286000000     3.665000000
O     5.532000000    -3.346000000    -4.070000000
H     5.056000000    -2.575000000    -3.758000000
H     5.677000000    -3.871000000    -3.283000000
O    -6.594000000    -0.906000000     3.461000000
H    -5.934000000    -0.233000000     3.296000000
H    -7.115000000    -0.933000000     2.659000000
O     4.772000000    -1.592000000     4.389000000
H     3.958000000    -1.911000000     4.777000000
H     4.988000000    -2.240000000     3.718000000
O     1.430000000     1.686000000    -4.537000000
H     0.949000000     0.858000000    -4.514000000
H     0.770000000     2.340000000    -4.767000000
O     6.499000000    -1.601000000     1.760000000
H     6.911000000    -2.123000000     1.072000000
H     5.930000000    -2.218000000     2.221000000
O     2.015000000    -4.481000000    -1.257000000
H     1.485000000    -3.776000000    -1.629000000
H     1.726000000    -5.267000000    -1.719000000
O    -4.290000000     4.369000000    -3.987000000
H    -4.679000000     4.773000000    -3.211000000
H    -3.770000000     3.642000000    -3.644000000
O     2.501000000    -2.233000000     5.500000000
H     1.873000000    -1.550000000     5.261000000
H     2.057000000    -3.053000000     5.284000000
O     4.605000000    -3.334000000     2.486000000
H     5.178000000    -4.096000000     2.576000000
H     3.750000000    -3.702000000     2.266000000
O     0.453000000    -0.541000000     4.845000000
H     1.186000000    -0.135000000     4.382000000
H    -0.274000000    -0.502000000     4.224000000
O    -2.147000000     0.756000000    -4.330000000
H    -2.228000000     1.548000000    -3.799000000
H    -2.818000000     0.851000000    -5.006000000
O    -1.309000000    -5.773000000    -0.788000000
H    -0.664000000    -6.394000000    -1.127000000
H    -1.046000000    -4.930000000    -1.156000000
O    -3.720000000     2.202000000    -2.559000000
H    -4.662000000     2.098000000    -2.692000000
H    -3.615000000     2.236000000    -1.608000000
O    -2.215000000    -2.223000000     3.425000000
H    -2.909000000    -2.883000000     3.421000000
H    -2.382000000    -1.705000000     4.213000000
O     3.455000000     1.537000000    -2.189000000
H     3.922000000     1.508000000    -1.354000000
H     3.235000000     2.461000000    -2.308000000
O     2.599000000    -0.859000000    -6.154000000
H     1.792000000    -0.398000000    -5.928000000
H     3.178000000    -0.710000000    -5.405000000
O    -2.043000000     1.752000000     4.608000000
H    -1.688000000     2.388000000     5.229000000
H    -2.351000000     2.281000000     3.872000000
O    -6.803000000     0.865000000     0.343000000
H    -5.850000000     0.879000000     0.432000000
H    -7.080000000     1.746000000     0.594000000
O    -6.707000000     3.027000000     3.867000000
H    -6.321000000     3.593000000     3.198000000
H    -7.651000000     3.126000000     3.748000000
O    -0.078000000    -0.916000000    -5.107000000
H    -0.446000000    -1.257000000    -5.922000000
H    -0.836000000    -0.603000000    -4.614000000
O    -2.630000000     6.723000000     3.181000000
H    -2.504000000     6.339000000     4.048000000
H    -2.346000000     6.041000000     2.573000000
O    -4.900000000     1.197000000     3.017000000
H    -5.535000000     1.821000000     3.368000000
H    -4.456000000     1.675000000     2.317000000
O    -6.173000000     4.167000000    -1.336000000
H    -6.799000000     4.890000000    -1.337000000
H    -6.642000000     3.443000000    -1.750000000
O     0.549000000    -3.175000000    -3.516000000
H     0.388000000    -2.322000000    -3.921000000
H     0.566000000    -3.789000000    -4.250000000
O    -4.438000000    -0.810000000    -2.039000000
H    -4.581000000    -0.117000000    -2.683000000
H    -4.215000000    -0.346000000    -1.233000000
O    -3.991000000    -3.614000000    -1.645000000
H    -3.620000000    -3.778000000    -0.778000000
H    -3.845000000    -2.680000000    -1.795000000
O     0.499000000     2.421000000    -1.730000000
H     1.012000000     2.022000000    -2.433000000
H     0.549000000     1.791000000    -1.011000000
O     6.483000000     2.928000000    -2.664000000
H     6.271000000     2.016000000    -2.465000000
H     7.152000000     2.874000000    -3.346000000
O    -3.154000000    -4.301000000     0.781000000
H    -3.184000000    -4.366000000     1.735000000
H    -2.266000000    -4.573000000     0.549000000
O    -5.401000000     6.314000000     1.844000000
H    -5.427000000     5.437000000     1.460000000
H    -4.771000000     6.792000000     1.304000000
O     2.917000000     0.592000000     6.571000000
H     2.624000000     0.150000000     5.774000000
H     2.876000000     1.524000000     6.356000000
O    -0.880000000     4.829000000    -1.923000000
H    -0.608000000     3.918000000    -2.031000000
H    -0.061000000     5.323000000    -1.906000000
O     4.193000000    -0.364000000    -3.973000000
H     3.791000000     0.328000000    -3.448000000
H     5.002000000    -0.578000000    -3.509000000
O     6.242000000    -0.852000000    -2.434000000
H     6.446000000    -0.669000000    -1.517000000
H     7.078000000    -0.754000000    -2.890000000
