144
-2830.01785
O     5.057000000    -3.898000000     1.046000000
H     6.013000000    -3.935000000     1.068000000
H     4.822000000    -4.281000000     0.201000000
O    -3.914000000    -1.549000000    -2.243000000
H    -3.898000000    -1.091000000    -1.402000000
H    -4.812000000    -1.444000000    -2.555000000
O     1.916000000    -6.434000000     0.198000000
H     2.653000000    -5.862000000    -0.016000000
H     1.165000000    -6.028000000    -0.235000000
O     4.345000000    -5.217000000    -1.345000000
H     3.807000000    -5.203000000    -2.136000000
H     4.874000000    -6.010000000    -1.428000000
O    -3.152000000     4.533000000     0.481000000
H    -3.068000000     3.581000000     0.527000000
H    -2.259000000     4.858000000     0.596000000
O    -1.777000000     0.289000000    -3.280000000
H    -1.101000000    -0.278000000    -3.651000000
H    -2.093000000    -0.186000000    -2.511000000
O     1.070000000    -1.740000000     3.061000000
H     1.402000000    -1.255000000     3.816000000
H     1.120000000    -1.118000000     2.335000000
O     5.903000000    -0.175000000    -0.906000000
H     5.779000000    -0.053000000     0.035000000
H     6.337000000    -1.026000000    -0.982000000
O     7.479000000     2.195000000    -0.802000000
H     7.192000000     3.057000000    -1.104000000
H     6.889000000     1.580000000    -1.236000000
O    -3.920000000     3.412000000     3.417000000
H    -3.334000000     3.868000000     2.813000000
H    -4.620000000     3.072000000     2.861000000
O     0.014000000     3.816000000     3.222000000
H    -0.615000000     3.770000000     3.941000000
H     0.861000000     3.939000000     3.651000000
O     5.696000000    -2.905000000    -2.850000000
H     4.892000000    -2.401000000    -2.980000000
H     5.485000000    -3.513000000    -2.142000000
O    -1.095000000     2.248000000    -4.959000000
H    -1.712000000     2.980000000    -4.969000000
H    -1.524000000     1.581000000    -4.423000000
O     5.340000000    -0.199000000     1.631000000
H     5.059000000    -1.096000000     1.814000000
H     5.112000000     0.290000000     2.422000000
O    -5.725000000    -3.329000000     0.553000000
H    -5.058000000    -3.435000000     1.232000000
H    -6.554000000    -3.327000000     1.031000000
O     2.507000000    -0.287000000     4.953000000
H     2.660000000     0.625000000     5.201000000
H     3.372000000    -0.617000000     4.710000000
O    -7.768000000     1.480000000     3.620000000
H    -7.135000000     1.698000000     2.936000000
H    -7.598000000     2.115000000     4.316000000
O    -3.689000000    -5.383000000    -0.458000000
H    -3.917000000    -6.279000000    -0.210000000
H    -4.452000000    -4.863000000    -0.207000000
O     2.506000000    -5.334000000    -3.330000000
H     2.098000000    -4.887000000    -4.072000000
H     1.944000000    -6.092000000    -3.169000000
O    -4.656000000     5.109000000    -1.963000000
H    -4.359000000     4.393000000    -2.523000000
H    -4.248000000     4.935000000    -1.115000000
O     3.251000000    -3.912000000     2.931000000
H     4.021000000    -3.704000000     2.402000000
H     2.513000000    -3.575000000     2.424000000
O     2.765000000     3.854000000     3.877000000
H     2.780000000     4.089000000     2.949000000
H     3.464000000     4.378000000     4.268000000
O    -0.891000000    -3.643000000     3.414000000
H    -0.702000000    -4.166000000     2.635000000
H    -0.386000000    -2.839000000     3.290000000
O     4.927000000     3.168000000    -4.114000000
H     4.366000000     2.621000000    -3.564000000
H     4.328000000     3.561000000    -4.750000000
O     0.041000000    -4.853000000    -1.271000000
H    -0.695000000    -5.126000000    -1.819000000
H     0.485000000    -4.179000000    -1.785000000
O    -4.024000000     2.582000000    -2.922000000
H    -4.958000000     2.383000000    -2.863000000
H    -3.589000000     1.775000000    -2.646000000
O     2.030000000     4.903000000    -0.048000000
H     2.847000000     4.406000000    -0.010000000
H     2.259000000     5.766000000     0.298000000
O    -0.993000000     3.717000000     5.668000000
H    -0.600000000     3.343000000     6.456000000
H    -1.258000000     4.599000000     5.929000000
O     2.579000000     2.022000000    -2.688000000
H     2.699000000     1.204000000    -2.205000000
H     1.677000000     2.281000000    -2.498000000
O     3.187000000    -1.983000000    -3.229000000
H     2.513000000    -2.439000000    -2.725000000
H     2.708000000    -1.318000000    -3.723000000
O    -2.381000000     1.297000000     4.556000000
H    -1.886000000     1.800000000     5.202000000
H    -2.895000000     1.953000000     4.084000000
O    -5.858000000     2.312000000     1.747000000
H    -5.093000000     2.061000000     1.230000000
H    -6.363000000     2.882000000     1.167000000
O     0.262000000    -0.983000000    -4.686000000
H     0.890000000    -0.311000000    -4.949000000
H    -0.263000000    -1.142000000    -5.471000000
O    -0.579000000     5.183000000     0.542000000
H     0.157000000     4.969000000    -0.032000000
H    -0.301000000     4.884000000     1.408000000
O     1.770000000     2.538000000    -5.119000000
H     2.188000000     2.604000000    -4.261000000
H     0.832000000     2.541000000    -4.930000000
O    -2.480000000    -4.478000000    -2.850000000
H    -2.969000000    -4.950000000    -2.176000000
H    -2.551000000    -3.558000000    -2.596000000
O     0.350000000    -3.209000000    -3.318000000
H     0.380000000    -2.377000000    -3.791000000
H     0.028000000    -3.839000000    -3.963000000
O    -3.864000000    -0.584000000     2.880000000
H    -4.773000000    -0.630000000     3.176000000
H    -3.762000000     0.313000000     2.560000000
O    -6.363000000    -0.133000000    -0.176000000
H    -5.501000000     0.221000000    -0.397000000
H    -6.176000000    -0.957000000     0.272000000
O     4.068000000     3.269000000     0.274000000
H     4.516000000     2.915000000     1.041000000
H     4.213000000     2.616000000    -0.411000000
O    -0.149000000     2.757000000    -1.635000000
H    -0.341000000     2.550000000    -0.721000000
H    -0.981000000     2.627000000    -2.090000000
O    -6.499000000     1.369000000    -2.405000000
H    -6.584000000     0.789000000    -1.648000000
H    -6.793000000     0.840000000    -3.146000000
O    -1.505000000    -4.652000000     0.956000000
H    -0.976000000    -4.770000000     0.167000000
H    -2.404000000    -4.809000000     0.668000000
O    -3.503000000    -3.178000000     2.487000000
H    -3.526000000    -2.228000000     2.607000000
H    -2.582000000    -3.412000000     2.604000000
O    -3.968000000     7.293000000     1.087000000
H    -4.580000000     7.498000000     0.380000000
H    -3.794000000     6.357000000     0.990000000
O     2.878000000    -0.050000000    -5.580000000
H     2.744000000     0.877000000    -5.385000000
H     3.269000000    -0.058000000    -6.453000000
O    -8.707000000     1.583000000     0.054000000
H    -8.078000000     0.874000000     0.189000000
H    -8.172000000     2.329000000    -0.220000000
O     5.676000000     0.108000000    -3.545000000
H     5.758000000    -0.086000000    -2.612000000
H     4.946000000    -0.437000000    -3.840000000
