144
-2809.16240
O    -2.934000000    -5.771000000    -3.527000000
H    -3.219000000    -5.947000000    -2.630000000
H    -3.224000000    -6.535000000    -4.025000000
O     3.931000000    -0.029000000     4.486000000
H     4.192000000    -0.528000000     3.711000000
H     3.272000000    -0.577000000     4.912000000
O    -3.147000000     4.624000000    -3.492000000
H    -3.072000000     3.707000000    -3.227000000
H    -2.682000000     5.109000000    -2.811000000
O     4.600000000    -1.777000000     2.536000000
H     4.880000000    -1.928000000     1.633000000
H     4.623000000    -2.644000000     2.942000000
O     6.466000000     0.370000000     5.568000000
H     5.562000000     0.394000000     5.256000000
H     6.658000000    -0.562000000     5.674000000
O     6.632000000     3.634000000     0.942000000
H     5.826000000     3.817000000     0.458000000
H     6.396000000     2.927000000     1.542000000
O    -0.588000000    -2.802000000     1.436000000
H    -1.532000000    -2.777000000     1.283000000
H    -0.256000000    -2.009000000     1.015000000
O     2.377000000    -4.117000000     0.945000000
H     1.455000000    -3.884000000     0.844000000
H     2.776000000    -3.883000000     0.107000000
O     7.733000000    -1.015000000     1.505000000
H     7.064000000    -1.684000000     1.363000000
H     7.422000000    -0.257000000     1.009000000
O     2.930000000    -3.077000000    -2.147000000
H     3.106000000    -2.530000000    -2.912000000
H     3.070000000    -3.972000000    -2.456000000
O     0.420000000     4.712000000     2.006000000
H    -0.235000000     4.310000000     1.436000000
H     0.058000000     5.573000000     2.216000000
O     0.694000000     2.544000000     6.816000000
H     0.953000000     3.161000000     6.132000000
H     0.708000000     1.689000000     6.386000000
O     5.408000000     2.581000000     3.209000000
H     5.137000000     1.705000000     3.485000000
H     6.070000000     2.840000000     3.850000000
O    -6.430000000     2.998000000     0.442000000
H    -7.351000000     2.764000000     0.326000000
H    -6.400000000     3.439000000     1.291000000
O    -4.288000000    -2.463000000    -4.349000000
H    -3.525000000    -2.185000000    -3.842000000
H    -4.428000000    -3.374000000    -4.092000000
O    -5.820000000    -0.748000000    -2.925000000
H    -5.544000000    -1.245000000    -3.695000000
H    -5.003000000    -0.509000000    -2.487000000
O     0.090000000    -6.584000000    -0.868000000
H    -0.112000000    -5.956000000    -1.561000000
H    -0.143000000    -6.130000000    -0.058000000
O     0.582000000     0.015000000     5.622000000
H     0.026000000    -0.474000000     5.016000000
H     1.126000000    -0.653000000     6.040000000
O     3.625000000    -4.300000000     3.234000000
H     4.133000000    -5.089000000     3.043000000
H     3.192000000    -4.089000000     2.407000000
O    -8.758000000    -0.698000000    -1.518000000
H    -9.393000000    -0.456000000    -2.193000000
H    -7.965000000    -0.921000000    -2.005000000
O     7.724000000     1.317000000    -0.008000000
H     7.742000000     1.346000000    -0.964000000
H     7.535000000     2.218000000     0.256000000
O    -3.722000000     4.928000000     1.836000000
H    -3.914000000     3.999000000     1.967000000
H    -2.851000000     4.939000000     1.440000000
O     2.628000000     7.052000000     2.362000000
H     2.887000000     6.205000000     2.725000000
H     1.726000000     6.922000000     2.070000000
O    -1.064000000    -0.427000000    -4.855000000
H    -0.793000000    -1.214000000    -5.329000000
H    -1.645000000    -0.750000000    -4.167000000
O    -1.663000000    -1.303000000     4.519000000
H    -1.179000000    -2.129000000     4.501000000
H    -2.067000000    -1.243000000     3.653000000
O     2.596000000     1.506000000    -3.756000000
H     2.433000000     1.873000000    -2.888000000
H     1.969000000     1.951000000    -4.326000000
O    -3.391000000     1.841000000    -3.845000000
H    -3.029000000     1.674000000    -4.715000000
H    -3.338000000     0.997000000    -3.397000000
O     0.138000000     2.137000000    -4.971000000
H    -0.446000000     2.724000000    -5.451000000
H    -0.399000000     1.368000000    -4.781000000
O     4.044000000     4.180000000    -0.301000000
H     3.928000000     4.808000000     0.412000000
H     3.154000000     3.923000000    -0.541000000
O    -0.057000000    -5.181000000    -3.137000000
H     0.452000000    -5.707000000    -3.753000000
H    -0.953000000    -5.217000000    -3.472000000
O    -2.777000000     2.515000000     5.054000000
H    -3.005000000     2.280000000     4.154000000
H    -2.828000000     1.690000000     5.537000000
O     2.233000000    -2.523000000     4.715000000
H     1.318000000    -2.653000000     4.467000000
H     2.682000000    -3.305000000     4.394000000
O     1.635000000     3.054000000    -1.143000000
H     1.165000000     2.558000000    -0.473000000
H     1.324000000     3.954000000    -1.036000000
O    -3.006000000     0.509000000    -6.850000000
H    -2.312000000     0.546000000    -6.192000000
H    -2.728000000    -0.181000000    -7.453000000
O    -3.536000000     2.626000000    -0.591000000
H    -3.478000000     1.818000000    -1.101000000
H    -4.476000000     2.796000000    -0.517000000
O     3.524000000     2.376000000     5.359000000
H     2.855000000     2.563000000     4.700000000
H     3.681000000     1.435000000     5.281000000
O     3.875000000     4.878000000     3.196000000
H     4.279000000     4.010000000     3.188000000
H     3.427000000     4.925000000     4.041000000
O     3.426000000    -1.258000000    -4.046000000
H     2.928000000    -1.335000000    -4.860000000
H     3.305000000    -0.347000000    -3.777000000
O     1.293000000     3.764000000     4.270000000
H     0.901000000     3.842000000     3.401000000
H     1.280000000     4.654000000     4.621000000
O    -6.758000000    -3.551000000     0.959000000
H    -6.873000000    -3.059000000     1.772000000
H    -6.009000000    -3.136000000     0.532000000
O    -5.224000000    -1.051000000     0.407000000
H    -6.157000000    -1.011000000     0.197000000
H    -4.793000000    -0.632000000    -0.338000000
O    -1.009000000    -3.245000000    -6.188000000
H    -1.619000000    -3.772000000    -6.705000000
H    -0.203000000    -3.761000000    -6.171000000
O    -3.706000000     2.186000000     2.352000000
H    -4.092000000     1.504000000     2.901000000
H    -3.924000000     1.925000000     1.457000000
O    -5.340000000     0.609000000     3.894000000
H    -4.960000000    -0.112000000     4.397000000
H    -6.276000000     0.569000000     4.088000000
O    -1.453000000     4.687000000    -0.074000000
H    -1.555000000     5.146000000    -0.908000000
H    -1.972000000     3.889000000    -0.175000000
O    -0.061000000    -3.411000000     3.943000000
H    -0.148000000    -3.375000000     2.991000000
H    -0.399000000    -4.274000000     4.183000000
O     5.510000000    -2.317000000    -0.347000000
H     4.647000000    -2.285000000    -0.759000000
H     5.589000000    -3.215000000    -0.026000000
O    -3.039000000    -1.845000000     2.408000000
H    -3.681000000    -1.479000000     1.799000000
H    -3.544000000    -2.047000000     3.195000000
