144
-2826.68908
O    -1.118000000     0.024000000    -6.673000000
H    -1.417000000     0.842000000    -6.275000000
H    -1.462000000     0.053000000    -7.566000000
O     4.117000000    -0.443000000     3.358000000
H     3.849000000     0.474000000     3.292000000
H     3.309000000    -0.915000000     3.557000000
O     6.600000000    -1.649000000     2.319000000
H     6.267000000    -2.028000000     1.505000000
H     5.841000000    -1.220000000     2.712000000
O    -2.772000000    -4.268000000    -2.594000000
H    -2.218000000    -4.669000000    -1.925000000
H    -3.326000000    -3.655000000    -2.110000000
O    -6.448000000     3.597000000     0.594000000
H    -6.972000000     2.885000000     0.961000000
H    -6.390000000     4.240000000     1.300000000
O     4.094000000     4.308000000     0.964000000
H     4.977000000     4.563000000     1.232000000
H     4.137000000     4.262000000     0.009000000
O    -2.912000000    -3.588000000     1.194000000
H    -3.316000000    -4.346000000     1.615000000
H    -3.468000000    -3.410000000     0.436000000
O    -0.369000000    -2.785000000     1.016000000
H    -1.029000000    -3.427000000     1.277000000
H    -0.834000000    -2.189000000     0.428000000
O     6.522000000    -1.619000000    -1.750000000
H     7.072000000    -1.211000000    -2.419000000
H     6.093000000    -0.885000000    -1.311000000
O     3.724000000     0.169000000    -3.239000000
H     3.156000000     0.702000000    -3.796000000
H     3.992000000    -0.560000000    -3.798000000
O    -6.031000000    -2.695000000    -3.805000000
H    -5.814000000    -1.886000000    -3.342000000
H    -6.988000000    -2.718000000    -3.810000000
O     1.540000000     4.184000000     2.318000000
H     0.908000000     4.116000000     1.602000000
H     2.393000000     4.213000000     1.883000000
O     2.286000000     1.703000000     3.950000000
H     1.864000000     2.518000000     3.679000000
H     1.560000000     1.112000000     4.151000000
O    -1.373000000    -3.016000000    -6.505000000
H    -1.512000000    -2.077000000    -6.385000000
H    -2.075000000    -3.429000000    -6.003000000
O    -4.506000000    -2.687000000    -0.988000000
H    -4.342000000    -1.760000000    -1.159000000
H    -5.455000000    -2.748000000    -0.886000000
O    -0.074000000    -4.509000000    -4.841000000
H    -0.214000000    -3.707000000    -5.345000000
H    -0.380000000    -4.295000000    -3.960000000
O    -3.421000000    -1.775000000     3.511000000
H    -3.416000000    -2.348000000     2.745000000
H    -2.506000000    -1.739000000     3.790000000
O    -0.220000000     0.331000000     4.727000000
H    -1.095000000     0.231000000     5.102000000
H    -0.162000000    -0.359000000     4.066000000
O     2.280000000    -3.296000000     3.624000000
H     2.861000000    -3.368000000     4.381000000
H     2.803000000    -3.618000000     2.889000000
O    -5.242000000    -0.279000000     5.559000000
H    -5.430000000     0.560000000     5.981000000
H    -4.435000000    -0.125000000     5.069000000
O    -2.660000000    -1.756000000    -3.885000000
H    -2.981000000    -1.117000000    -3.249000000
H    -2.672000000    -2.589000000    -3.414000000
O     0.073000000     3.154000000    -0.119000000
H     0.839000000     3.091000000    -0.691000000
H    -0.060000000     2.261000000     0.201000000
O     6.663000000    -4.305000000    -1.038000000
H     6.314000000    -4.276000000    -0.147000000
H     6.604000000    -3.401000000    -1.347000000
O     3.023000000    -2.929000000    -3.937000000
H     3.733000000    -3.507000000    -3.657000000
H     2.336000000    -3.523000000    -4.240000000
O    -0.243000000    -2.056000000     3.537000000
H    -0.525000000    -2.159000000     2.629000000
H     0.546000000    -2.593000000     3.605000000
O    -1.094000000     2.947000000    -5.505000000
H    -1.764000000     2.481000000    -5.005000000
H    -1.466000000     3.817000000    -5.651000000
O     8.352000000     0.955000000    -0.811000000
H     7.549000000     1.383000000    -1.106000000
H     8.225000000     0.829000000     0.129000000
O    -7.684000000     1.801000000    -3.859000000
H    -6.857000000     1.889000000    -3.385000000
H    -7.815000000     2.655000000    -4.271000000
O    -3.903000000    -0.006000000    -5.698000000
H    -4.684000000    -0.309000000    -6.161000000
H    -3.601000000    -0.772000000    -5.211000000
O    -4.767000000     0.488000000     2.703000000
H    -4.377000000    -0.257000000     3.159000000
H    -4.424000000     0.428000000     1.811000000
O    -0.046000000     2.812000000     5.814000000
H     0.531000000     2.789000000     6.577000000
H     0.012000000     1.931000000     5.443000000
O     6.374000000    -4.725000000     1.790000000
H     6.664000000    -4.769000000     2.701000000
H     5.446000000    -4.495000000     1.845000000
O    -1.205000000    -2.108000000     6.196000000
H    -0.557000000    -1.685000000     6.761000000
H    -0.806000000    -2.098000000     5.326000000
O    -2.166000000     4.151000000    -2.574000000
H    -2.139000000     3.417000000    -3.188000000
H    -1.254000000     4.432000000    -2.498000000
O    -2.931000000     1.663000000    -3.558000000
H    -3.441000000     1.133000000    -4.171000000
H    -3.157000000     1.316000000    -2.695000000
O    -3.728000000     3.445000000     0.878000000
H    -3.445000000     2.562000000     0.641000000
H    -4.434000000     3.644000000     0.262000000
O    -2.582000000     0.855000000     6.140000000
H    -2.908000000     0.591000000     7.000000000
H    -2.144000000     1.692000000     6.296000000
O     3.609000000    -4.605000000     1.432000000
H     3.280000000    -4.355000000     0.569000000
H     3.459000000    -5.549000000     1.481000000
O     1.965000000    -3.564000000    -0.572000000
H     2.147000000    -2.647000000    -0.778000000
H     1.244000000    -3.530000000     0.056000000
O     2.180000000     1.739000000    -5.125000000
H     1.908000000     1.031000000    -5.710000000
H     1.665000000     2.494000000    -5.408000000
O    -7.218000000    -0.849000000    -2.014000000
H    -7.016000000     0.082000000    -1.919000000
H    -7.285000000    -1.172000000    -1.115000000
O    -6.145000000     1.456000000    -1.154000000
H    -5.525000000     1.093000000    -0.521000000
H    -6.522000000     2.216000000    -0.711000000
O    -4.374000000     3.101000000     3.673000000
H    -4.096000000     3.323000000     2.785000000
H    -4.826000000     2.262000000     3.581000000
O    -1.718000000     5.214000000     0.594000000
H    -1.021000000     4.620000000     0.316000000
H    -2.392000000     4.640000000     0.956000000
O     1.601000000    -5.625000000    -2.211000000
H     0.728000000    -5.844000000    -1.884000000
H     1.926000000    -4.962000000    -1.601000000
O     5.901000000     1.709000000    -1.760000000
H     5.499000000     2.576000000    -1.703000000
H     5.412000000     1.264000000    -2.452000000
O    -7.229000000     1.194000000     1.672000000
H    -6.508000000     0.873000000     2.213000000
H    -7.974000000     0.646000000     1.916000000
O     2.322000000     2.556000000    -1.581000000
H     3.106000000     2.716000000    -2.106000000
H     2.167000000     1.615000000    -1.663000000
