144
-2823.39954
O     6.215000000    -1.195000000     2.203000000
H     5.853000000    -1.665000000     1.452000000
H     5.517000000    -1.214000000     2.857000000
O    -4.441000000     1.893000000    -3.186000000
H    -3.968000000     1.434000000    -2.491000000
H    -4.964000000     2.549000000    -2.726000000
O     3.931000000    -0.039000000     4.294000000
H     3.402000000     0.753000000     4.199000000
H     3.295000000    -0.732000000     4.470000000
O    -5.833000000     0.310000000     2.769000000
H    -6.168000000     0.800000000     2.018000000
H    -5.298000000     0.942000000     3.248000000
O    -1.383000000    -3.601000000    -4.030000000
H    -0.999000000    -2.796000000    -4.377000000
H    -2.164000000    -3.311000000    -3.559000000
O     4.700000000    -4.366000000    -1.389000000
H     4.102000000    -4.156000000    -2.107000000
H     4.126000000    -4.569000000    -0.651000000
O    -1.220000000     4.396000000     1.632000000
H    -1.792000000     3.705000000     1.296000000
H    -0.731000000     4.696000000     0.866000000
O    -2.880000000     0.288000000    -4.683000000
H    -3.231000000     0.191000000    -5.569000000
H    -3.469000000     0.913000000    -4.260000000
O     0.998000000    -1.241000000     4.067000000
H     0.868000000    -1.272000000     5.015000000
H     0.348000000    -0.610000000     3.756000000
O     6.022000000    -0.222000000    -2.026000000
H     6.178000000    -0.599000000    -2.891000000
H     5.714000000     0.667000000    -2.203000000
O     1.166000000    -6.409000000     0.266000000
H     1.792000000    -5.737000000     0.536000000
H     0.481000000    -5.926000000    -0.197000000
O     1.593000000     4.573000000     2.830000000
H     0.859000000     4.223000000     2.325000000
H     1.728000000     5.453000000     2.478000000
O     5.568000000     2.611000000     1.102000000
H     4.871000000     1.957000000     1.144000000
H     5.201000000     3.380000000     1.540000000
O    -6.280000000     3.420000000     4.391000000
H    -6.392000000     2.602000000     4.876000000
H    -5.508000000     3.270000000     3.845000000
O    -3.944000000    -1.416000000     1.618000000
H    -4.447000000    -0.716000000     2.033000000
H    -3.413000000    -1.782000000     2.326000000
O    -3.128000000    -3.156000000    -2.097000000
H    -2.694000000    -3.458000000    -1.299000000
H    -3.593000000    -2.363000000    -1.832000000
O    -1.207000000    -3.374000000     0.080000000
H    -0.746000000    -3.953000000     0.687000000
H    -1.407000000    -2.594000000     0.598000000
O     3.262000000     2.825000000     3.919000000
H     2.753000000     3.582000000     3.629000000
H     4.071000000     3.200000000     4.267000000
O     3.934000000    -2.919000000    -5.284000000
H     4.193000000    -2.009000000    -5.139000000
H     3.781000000    -3.268000000    -4.406000000
O    -2.103000000    -2.874000000     3.307000000
H    -1.699000000    -2.050000000     3.578000000
H    -1.366000000    -3.469000000     3.172000000
O    -0.404000000     2.449000000    -4.225000000
H    -0.925000000     1.659000000    -4.079000000
H    -0.517000000     2.641000000    -5.156000000
O     6.300000000    -2.353000000    -0.352000000
H     6.307000000    -1.697000000    -1.049000000
H     5.814000000    -3.090000000    -0.721000000
O     2.513000000    -3.811000000    -3.137000000
H     1.849000000    -4.500000000    -3.166000000
H     2.012000000    -2.998000000    -3.075000000
O     3.108000000    -4.657000000     0.752000000
H     2.916000000    -4.298000000     1.619000000
H     3.767000000    -5.332000000     0.913000000
O    -3.404000000     4.305000000    -1.054000000
H    -4.120000000     3.771000000    -1.399000000
H    -2.955000000     3.731000000    -0.433000000
O    -3.667000000     2.420000000     3.289000000
H    -2.922000000     2.888000000     3.665000000
H    -3.605000000     2.586000000     2.349000000
O     7.994000000     0.082000000     0.042000000
H     7.320000000     0.024000000    -0.635000000
H     7.522000000    -0.056000000     0.863000000
O    -0.380000000    -1.023000000    -5.177000000
H     0.009000000    -0.458000000    -5.844000000
H    -1.209000000    -0.599000000    -4.957000000
O     0.788000000     2.092000000     4.584000000
H     1.676000000     2.236000000     4.256000000
H     0.913000000     1.742000000     5.466000000
O    -3.880000000     7.079000000    -0.837000000
H    -3.809000000     6.138000000    -0.995000000
H    -2.985000000     7.405000000    -0.929000000
O    -6.159000000     3.068000000    -5.093000000
H    -5.485000000     2.538000000    -4.667000000
H    -6.791000000     2.430000000    -5.424000000
O    -1.617000000     3.137000000     4.912000000
H    -0.746000000     2.811000000     4.686000000
H    -1.452000000     3.949000000     5.392000000
O     1.519000000    -7.407000000    -2.382000000
H     1.180000000    -6.671000000    -1.873000000
H     2.134000000    -7.843000000    -1.792000000
O    -0.224000000    -5.143000000    -1.904000000
H    -0.488000000    -4.904000000    -2.792000000
H    -0.392000000    -4.357000000    -1.384000000
O    -1.002000000     6.487000000     3.391000000
H    -0.185000000     6.813000000     3.014000000
H    -1.282000000     5.794000000     2.793000000
O     1.933000000    -1.312000000    -3.735000000
H     2.639000000    -0.681000000    -3.874000000
H     1.158000000    -0.889000000    -4.105000000
O    -3.844000000     2.411000000     6.278000000
H    -3.184000000     2.719000000     5.658000000
H    -3.948000000     1.481000000     6.075000000
O    -4.656000000    -1.074000000    -1.065000000
H    -4.472000000    -1.394000000    -0.181000000
H    -4.251000000    -0.207000000    -1.095000000
O    -6.044000000     1.479000000     0.326000000
H    -5.109000000     1.428000000     0.127000000
H    -6.371000000     2.177000000    -0.241000000
O     0.297000000     4.475000000    -0.428000000
H     0.401000000     3.554000000    -0.667000000
H     1.191000000     4.790000000    -0.294000000
O     0.092000000    -4.453000000     2.441000000
H    -0.155000000    -5.343000000     2.691000000
H     0.971000000    -4.338000000     2.804000000
O    -2.097000000    -0.366000000     4.016000000
H    -2.144000000     0.526000000     3.672000000
H    -2.696000000    -0.367000000     4.762000000
O     2.428000000    -3.530000000     3.220000000
H     3.255000000    -3.406000000     3.685000000
H     2.000000000    -2.675000000     3.261000000
O    -5.634000000    -1.731000000    -3.736000000
H    -4.975000000    -2.288000000    -3.320000000
H    -6.178000000    -1.421000000    -3.012000000
O    -6.499000000     3.096000000    -1.728000000
H    -6.478000000     4.030000000    -1.938000000
H    -7.328000000     2.787000000    -2.092000000
O     5.259000000     2.466000000    -1.711000000
H     5.143000000     2.669000000    -0.783000000
H     4.708000000     3.103000000    -2.166000000
O    -7.437000000    -1.817000000    -1.219000000
H    -6.579000000    -1.563000000    -0.880000000
H    -8.060000000    -1.311000000    -0.697000000
O     0.894000000     2.116000000    -1.819000000
H     1.069000000     1.236000000    -1.485000000
H     0.405000000     1.971000000    -2.629000000
