144
-2826.73194
O    -0.982000000     1.106000000     3.228000000
H    -1.813000000     0.635000000     3.168000000
H    -0.560000000     0.955000000     2.383000000
O     6.051000000    -1.761000000     3.067000000
H     5.439000000    -1.028000000     3.142000000
H     6.892000000    -1.351000000     2.865000000
O    -0.907000000     7.606000000    -0.556000000
H    -1.218000000     7.383000000     0.321000000
H    -0.626000000     8.518000000    -0.486000000
O    -3.563000000     2.898000000     1.165000000
H    -2.911000000     3.160000000     1.815000000
H    -3.085000000     2.895000000     0.335000000
O    -1.764000000    -7.526000000    -1.771000000
H    -2.182000000    -8.131000000    -1.158000000
H    -2.329000000    -6.753000000    -1.768000000
O    -4.337000000    -3.083000000    -1.822000000
H    -4.251000000    -3.056000000    -0.869000000
H    -3.721000000    -2.421000000    -2.137000000
O    -5.295000000    -0.309000000     0.714000000
H    -5.905000000    -0.087000000     0.011000000
H    -5.533000000     0.277000000     1.433000000
O     3.255000000    -4.916000000    -1.226000000
H     3.506000000    -4.499000000    -0.402000000
H     2.482000000    -5.437000000    -1.005000000
O    -4.166000000    -2.661000000     0.951000000
H    -4.431000000    -1.741000000     0.937000000
H    -3.555000000    -2.723000000     1.685000000
O     4.525000000    -3.415000000     1.049000000
H     4.458000000    -2.664000000     1.639000000
H     3.665000000    -3.833000000     1.094000000
O     1.621000000     7.806000000    -3.616000000
H     1.361000000     7.041000000    -3.101000000
H     2.520000000     7.619000000    -3.886000000
O     1.317000000    -7.219000000    -3.178000000
H     1.038000000    -8.133000000    -3.126000000
H     1.196000000    -6.881000000    -2.291000000
O     2.290000000    -5.055000000     1.720000000
H     2.289000000    -4.969000000     2.673000000
H     1.406000000    -5.351000000     1.504000000
O    -6.034000000     3.591000000     2.127000000
H    -5.220000000     3.398000000     1.664000000
H    -6.363000000     4.388000000     1.711000000
O     6.230000000    -2.279000000    -0.703000000
H     5.776000000    -2.892000000    -0.126000000
H     7.155000000    -2.375000000    -0.474000000
O    -2.081000000    -5.322000000     0.716000000
H    -2.353000000    -4.548000000     1.209000000
H    -2.680000000    -5.352000000    -0.031000000
O     5.193000000    -6.053000000    -2.721000000
H     5.796000000    -5.354000000    -2.974000000
H     4.453000000    -5.597000000    -2.319000000
O    -2.793000000    -1.396000000    -2.876000000
H    -2.134000000    -1.527000000    -3.558000000
H    -2.778000000    -0.454000000    -2.706000000
O    -3.634000000    -0.360000000     3.289000000
H    -4.219000000     0.368000000     3.080000000
H    -4.106000000    -0.863000000     3.953000000
O    -6.549000000     0.384000000    -1.601000000
H    -6.083000000    -0.079000000    -2.298000000
H    -6.295000000     1.300000000    -1.711000000
O     0.071000000    -6.463000000     2.254000000
H    -0.666000000    -6.215000000     1.697000000
H    -0.054000000    -7.398000000     2.415000000
O    -1.185000000     5.821000000    -4.744000000
H    -0.760000000     5.168000000    -5.299000000
H    -0.735000000     5.750000000    -3.902000000
O     2.692000000    -4.703000000     4.352000000
H     2.816000000    -5.354000000     5.043000000
H     3.296000000    -3.996000000     4.577000000
O    -4.140000000     7.201000000     1.096000000
H    -3.476000000     6.561000000     1.353000000
H    -3.664000000     7.839000000     0.565000000
O    -2.060000000     3.825000000     4.043000000
H    -2.150000000     4.048000000     4.970000000
H    -1.672000000     2.950000000     4.044000000
O     1.454000000     1.631000000    -4.606000000
H     0.692000000     2.058000000    -4.214000000
H     1.598000000     0.855000000    -4.065000000
O     6.362000000    -5.285000000     1.189000000
H     6.137000000    -6.214000000     1.237000000
H     5.543000000    -4.852000000     0.948000000
O     1.659000000     8.271000000     1.412000000
H     1.755000000     7.381000000     1.073000000
H     1.640000000     8.824000000     0.630000000
O    -0.093000000    -4.153000000     4.131000000
H     0.772000000    -4.234000000     4.533000000
H    -0.284000000    -5.028000000     3.794000000
O     3.651000000    -0.440000000    -4.741000000
H     3.527000000    -1.242000000    -5.249000000
H     3.097000000    -0.557000000    -3.969000000
O     5.719000000     0.756000000    -2.995000000
H     5.128000000     1.478000000    -2.779000000
H     5.216000000     0.207000000    -3.596000000
O    -3.810000000     4.596000000    -2.005000000
H    -2.918000000     4.319000000    -1.797000000
H    -4.214000000     4.762000000    -1.153000000
O     0.437000000    -5.807000000    -1.204000000
H    -0.425000000    -6.052000000    -0.869000000
H     0.264000000    -5.074000000    -1.795000000
O     5.817000000     0.433000000    -0.203000000
H     5.645000000     0.741000000    -1.092000000
H     5.686000000    -0.514000000    -0.248000000
O    -5.801000000     1.225000000     3.175000000
H    -6.715000000     1.073000000     3.415000000
H    -5.811000000     2.064000000     2.715000000
O    -1.916000000     5.178000000     1.299000000
H    -1.326000000     5.111000000     2.050000000
H    -1.520000000     4.618000000     0.632000000
O    -1.105000000     2.227000000    -3.674000000
H    -2.017000000     2.294000000    -3.956000000
H    -1.094000000     2.622000000    -2.802000000
O    -6.384000000     3.098000000    -2.411000000
H    -5.521000000     3.484000000    -2.260000000
H    -6.388000000     2.875000000    -3.342000000
O     3.262000000     4.392000000     2.705000000
H     3.027000000     5.162000000     3.224000000
H     2.944000000     4.590000000     1.824000000
O     4.166000000     5.581000000    -1.763000000
H     3.975000000     6.214000000    -2.455000000
H     4.920000000     5.949000000    -1.303000000
O     0.086000000    -3.815000000    -3.256000000
H     0.891000000    -3.297000000    -3.252000000
H    -0.450000000    -3.421000000    -3.944000000
O     3.731000000     2.701000000    -2.695000000
H     3.020000000     2.862000000    -3.316000000
H     3.648000000     3.402000000    -2.050000000
O    -3.835000000    -5.712000000    -1.400000000
H    -4.391000000    -6.291000000    -1.920000000
H    -4.131000000    -4.830000000    -1.625000000
O     1.589000000    -0.526000000    -2.737000000
H     1.160000000    -0.451000000    -1.885000000
H     2.144000000    -1.303000000    -2.658000000
O     2.698000000    -2.888000000    -2.971000000
H     2.586000000    -3.310000000    -2.119000000
H     3.636000000    -2.954000000    -3.149000000
O     2.401000000     5.602000000     0.358000000
H     1.664000000     4.992000000     0.326000000
H     2.939000000     5.367000000    -0.398000000
O     0.159000000     5.762000000    -2.427000000
H    -0.470000000     6.245000000    -1.891000000
H     0.451000000     5.045000000    -1.865000000
O    -2.282000000    -2.903000000     2.766000000
H    -1.555000000    -3.193000000     3.317000000
H    -2.248000000    -1.947000000     2.809000000
