144
-2786.01916
O     2.834000000     3.354000000     0.721000000
H     2.561000000     3.687000000     1.576000000
H     2.206000000     2.660000000     0.523000000
O    -5.447000000    -1.152000000     0.255000000
H    -6.295000000    -0.752000000     0.065000000
H    -4.830000000    -0.420000000     0.255000000
O     5.796000000    -3.660000000     3.226000000
H     4.910000000    -3.844000000     3.539000000
H     5.883000000    -4.186000000     2.432000000
O     2.107000000     0.657000000    -4.927000000
H     2.031000000     0.620000000    -5.880000000
H     1.745000000    -0.176000000    -4.625000000
O    -1.960000000    -3.762000000     0.015000000
H    -1.738000000    -3.019000000    -0.545000000
H    -2.469000000    -4.344000000    -0.549000000
O     0.481000000    -5.555000000     0.922000000
H     0.635000000    -4.610000000     0.950000000
H     0.654000000    -5.799000000     0.012000000
O     3.423000000    -2.676000000    -2.459000000
H     3.777000000    -2.743000000    -1.572000000
H     4.193000000    -2.554000000    -3.015000000
O     5.804000000    -3.276000000    -0.387000000
H     5.930000000    -3.879000000     0.345000000
H     6.331000000    -3.646000000    -1.095000000
O     6.098000000     0.941000000    -1.868000000
H     5.620000000     1.478000000    -1.237000000
H     6.844000000     1.482000000    -2.127000000
O    -4.372000000     5.526000000    -3.763000000
H    -3.725000000     5.589000000    -4.466000000
H    -3.950000000     4.984000000    -3.097000000
O    -6.063000000     4.190000000    -1.236000000
H    -6.989000000     4.430000000    -1.279000000
H    -5.744000000     4.305000000    -2.131000000
O    -4.284000000    -0.762000000    -2.974000000
H    -5.128000000    -0.984000000    -2.581000000
H    -3.934000000    -0.069000000    -2.414000000
O    -3.849000000    -2.540000000     2.006000000
H    -3.109000000    -2.939000000     1.548000000
H    -4.157000000    -1.855000000     1.413000000
O     0.859000000    -2.359000000     4.447000000
H     0.289000000    -3.122000000     4.347000000
H     1.522000000    -2.638000000     5.078000000
O    -5.742000000    -3.398000000    -1.820000000
H    -6.610000000    -3.683000000    -1.535000000
H    -5.368000000    -2.966000000    -1.053000000
O     7.566000000    -1.052000000    -0.310000000
H     6.791000000    -1.603000000    -0.199000000
H     7.228000000    -0.233000000    -0.672000000
O    -0.324000000     0.818000000     3.538000000
H    -0.800000000     0.012000000     3.338000000
H    -1.006000000     1.485000000     3.620000000
O    -1.114000000     3.931000000     2.887000000
H    -1.754000000     3.650000000     3.541000000
H    -1.639000000     4.150000000     2.117000000
O    -1.693000000     0.538000000    -4.354000000
H    -2.444000000     0.816000000    -3.830000000
H    -1.272000000    -0.142000000    -3.828000000
O     3.414000000     5.339000000    -0.919000000
H     3.234000000     4.660000000    -0.270000000
H     2.606000000     5.404000000    -1.428000000
O     4.300000000    -5.667000000    -2.025000000
H     3.944000000    -5.532000000    -1.146000000
H     3.813000000    -5.056000000    -2.577000000
O    -4.263000000    -4.858000000     4.162000000
H    -3.707000000    -5.072000000     4.911000000
H    -3.909000000    -4.034000000     3.828000000
O    -5.133000000    -1.873000000    -5.219000000
H    -4.865000000    -1.525000000    -4.368000000
H    -5.811000000    -2.516000000    -5.012000000
O     4.970000000     0.890000000    -4.629000000
H     4.028000000     0.828000000    -4.469000000
H     5.355000000     0.987000000    -3.758000000
O    -4.962000000     2.231000000    -3.456000000
H    -5.210000000     1.712000000    -4.220000000
H    -4.106000000     1.887000000    -3.200000000
O     7.593000000     2.015000000     1.931000000
H     7.368000000     2.322000000     2.809000000
H     6.765000000     2.032000000     1.451000000
O    -7.036000000     1.929000000     3.154000000
H    -6.433000000     2.460000000     2.634000000
H    -6.812000000     2.133000000     4.062000000
O     5.377000000     2.438000000     0.451000000
H     4.521000000     2.510000000     0.874000000
H     5.635000000     3.343000000     0.276000000
O    -0.294000000     3.262000000    -4.779000000
H    -0.886000000     3.660000000    -5.417000000
H    -0.645000000     2.381000000    -4.644000000
O    -3.004000000     4.954000000     0.470000000
H    -3.832000000     4.583000000     0.774000000
H    -3.024000000     4.838000000    -0.480000000
O    -2.540000000     4.098000000    -2.192000000
H    -2.809000000     3.180000000    -2.149000000
H    -1.666000000     4.073000000    -2.582000000
O    -1.592000000    -1.077000000    -6.703000000
H    -1.857000000    -1.888000000    -6.270000000
H    -1.515000000    -0.440000000    -5.993000000
O    -5.407000000     2.736000000     1.094000000
H    -4.855000000     2.106000000     0.630000000
H    -5.993000000     3.082000000     0.420000000
O     0.809000000     5.038000000    -2.510000000
H     0.998000000     5.865000000    -2.067000000
H     0.149000000     5.263000000    -3.166000000
O     4.445000000     1.459000000     4.450000000
H     3.553000000     1.121000000     4.529000000
H     5.003000000     0.720000000     4.692000000
O     1.178000000    -2.247000000    -3.945000000
H     1.861000000    -2.603000000    -3.377000000
H     1.403000000    -2.563000000    -4.819000000
O     1.971000000     0.264000000     4.922000000
H     1.881000000    -0.661000000     4.695000000
H     1.326000000     0.710000000     4.372000000
O    -6.745000000     1.140000000    -1.742000000
H    -6.992000000     1.714000000    -1.017000000
H    -5.934000000     1.519000000    -2.082000000
O    -0.806000000    -2.303000000    -2.140000000
H    -0.729000000    -1.521000000    -1.594000000
H    -0.120000000    -2.202000000    -2.800000000
O    -3.125000000     1.261000000     2.607000000
H    -3.215000000     1.116000000     1.665000000
H    -4.000000000     1.520000000     2.895000000
O    -0.906000000    -4.662000000     3.745000000
H    -0.988000000    -4.649000000     2.792000000
H    -0.753000000    -5.582000000     3.960000000
O    -7.924000000    -0.183000000    -3.855000000
H    -7.359000000     0.252000000    -3.216000000
H    -8.206000000     0.519000000    -4.442000000
O     2.572000000     3.078000000    -3.353000000
H     1.783000000     3.556000000    -3.097000000
H     2.250000000     2.226000000    -3.647000000
O    -5.675000000    -1.777000000     4.252000000
H    -5.411000000    -1.059000000     4.828000000
H    -5.073000000    -1.721000000     3.510000000
O    -1.850000000    -1.613000000     4.445000000
H    -0.946000000    -1.795000000     4.189000000
H    -2.341000000    -2.382000000     4.156000000
O     4.971000000     4.652000000    -3.146000000
H     4.339000000     3.948000000    -3.286000000
H     4.900000000     4.857000000    -2.213000000
O     1.542000000     3.043000000     2.951000000
H     1.124000000     2.182000000     2.915000000
H     0.815000000     3.658000000     3.045000000
O     5.051000000    -1.496000000     5.261000000
H     4.138000000    -1.774000000     5.187000000
H     5.546000000    -2.171000000     4.797000000
