144
-2816.64287
O    -4.166000000    -3.339000000     2.773000000
H    -4.973000000    -3.782000000     3.035000000
H    -3.466000000    -3.899000000     3.109000000
O     4.683000000    -1.491000000     1.878000000
H     4.313000000    -1.287000000     1.018000000
H     3.922000000    -1.564000000     2.454000000
O    -2.016000000     4.235000000    -0.966000000
H    -2.471000000     4.092000000    -1.796000000
H    -1.091000000     4.099000000    -1.174000000
O    -1.681000000     5.461000000    -4.422000000
H    -2.510000000     5.121000000    -4.086000000
H    -1.159000000     5.638000000    -3.639000000
O    -3.270000000    -5.465000000     0.188000000
H    -2.487000000    -5.854000000    -0.203000000
H    -3.750000000    -6.209000000     0.551000000
O     1.025000000    -2.500000000     6.302000000
H     1.838000000    -2.901000000     6.610000000
H     0.589000000    -2.199000000     7.100000000
O    -3.892000000     3.617000000     1.135000000
H    -3.304000000     3.137000000     1.718000000
H    -3.310000000     4.044000000     0.506000000
O     1.437000000    -3.243000000    -2.975000000
H     0.675000000    -2.824000000    -3.375000000
H     2.165000000    -3.022000000    -3.557000000
O     2.676000000    -7.179000000     1.351000000
H     3.185000000    -6.444000000     1.694000000
H     2.274000000    -6.840000000     0.552000000
O     2.507000000    -4.033000000    -0.056000000
H     2.695000000    -3.291000000     0.519000000
H     1.818000000    -3.715000000    -0.639000000
O     0.438000000    -4.020000000     4.105000000
H     0.669000000    -3.251000000     4.626000000
H     1.241000000    -4.241000000     3.634000000
O    -1.576000000    -5.540000000     3.548000000
H    -1.244000000    -6.192000000     2.930000000
H    -0.819000000    -4.988000000     3.744000000
O    -3.210000000    -0.958000000     1.060000000
H    -3.552000000    -1.779000000     1.415000000
H    -3.142000000    -1.114000000     0.118000000
O     2.921000000     5.183000000    -6.457000000
H     2.716000000     4.835000000    -7.325000000
H     2.245000000     4.816000000    -5.886000000
O    -0.975000000     6.579000000     2.006000000
H    -1.829000000     6.886000000     1.702000000
H    -0.501000000     6.359000000     1.204000000
O     0.091000000    -0.334000000    -5.886000000
H    -0.802000000     0.007000000    -5.923000000
H     0.619000000     0.327000000    -6.334000000
O     1.377000000     1.894000000    -6.804000000
H     1.444000000     2.505000000    -6.071000000
H     2.148000000     2.078000000    -7.340000000
O    -3.935000000     1.279000000    -0.493000000
H    -3.855000000     2.197000000    -0.232000000
H    -3.364000000     0.807000000     0.114000000
O     0.115000000    -0.247000000     4.805000000
H     0.458000000    -1.108000000     5.042000000
H     0.894000000     0.293000000     4.670000000
O    -4.813000000    -3.082000000    -0.546000000
H    -4.308000000    -2.950000000    -1.349000000
H    -4.315000000    -3.735000000    -0.055000000
O     2.937000000     4.310000000     4.075000000
H     3.331000000     3.828000000     3.348000000
H     1.994000000     4.217000000     3.941000000
O    -1.462000000     3.847000000    -6.911000000
H    -2.003000000     4.110000000    -6.166000000
H    -0.815000000     3.248000000    -6.538000000
O     3.022000000    -4.448000000     3.440000000
H     3.654000000    -4.441000000     2.721000000
H     3.514000000    -4.787000000     4.187000000
O    -1.804000000     2.236000000     2.597000000
H    -1.337000000     1.696000000     1.959000000
H    -1.907000000     1.668000000     3.361000000
O    -2.597000000    -0.371000000     3.691000000
H    -1.691000000    -0.602000000     3.897000000
H    -2.730000000    -0.696000000     2.800000000
O     4.134000000     1.992000000    -4.409000000
H     3.414000000     1.382000000    -4.245000000
H     4.028000000     2.673000000    -3.745000000
O    -3.020000000    -1.210000000     6.705000000
H    -2.772000000    -0.485000000     7.280000000
H    -3.179000000    -0.798000000     5.856000000
O    -1.187000000    -2.474000000    -4.117000000
H    -1.265000000    -3.157000000    -4.783000000
H    -1.216000000    -1.654000000    -4.610000000
O    -4.171000000     4.525000000    -3.516000000
H    -4.965000000     4.589000000    -2.985000000
H    -4.459000000     4.739000000    -4.404000000
O    -5.385000000    -0.919000000     3.795000000
H    -4.473000000    -0.629000000     3.825000000
H    -5.376000000    -1.780000000     4.214000000
O     0.024000000    -5.674000000    -2.438000000
H     0.168000000    -4.729000000    -2.494000000
H     0.331000000    -6.014000000    -3.278000000
O     1.908000000     0.230000000    -3.712000000
H     1.435000000    -0.224000000    -4.409000000
H     1.252000000     0.796000000    -3.306000000
O     0.181000000     4.460000000     3.529000000
H    -0.446000000     3.870000000     3.111000000
H     0.232000000     5.213000000     2.940000000
O     3.119000000     6.173000000     0.493000000
H     3.256000000     6.264000000    -0.450000000
H     3.168000000     7.067000000     0.830000000
O     3.413000000    -0.599000000     4.565000000
H     3.753000000     0.291000000     4.652000000
H     3.950000000    -1.121000000     5.160000000
O     4.771000000     4.064000000     1.292000000
H     4.248000000     4.834000000     1.068000000
H     4.878000000     3.597000000     0.464000000
O    -1.206000000     1.844000000     6.462000000
H    -1.141000000     0.932000000     6.180000000
H    -2.084000000     2.116000000     6.194000000
O    -1.555000000    -3.834000000     7.058000000
H    -0.671000000    -3.887000000     6.694000000
H    -1.694000000    -2.901000000     7.215000000
O     3.094000000     4.019000000    -1.733000000
H     2.931000000     4.808000000    -2.250000000
H     2.239000000     3.592000000    -1.673000000
O     2.524000000     7.038000000    -2.363000000
H     2.475000000     7.991000000    -2.283000000
H     1.624000000     6.767000000    -2.548000000
O    -3.641000000     0.246000000    -3.112000000
H    -3.833000000     0.347000000    -2.180000000
H    -3.638000000    -0.700000000    -3.256000000
O    -0.202000000     7.046000000    -2.888000000
H    -0.525000000     7.227000000    -3.770000000
H    -0.598000000     7.725000000    -2.343000000
O    -2.217000000     1.101000000    -5.181000000
H    -2.843000000     0.784000000    -4.530000000
H    -1.464000000     1.393000000    -4.667000000
O     3.278000000    -0.814000000    -0.461000000
H     3.812000000    -0.898000000    -1.250000000
H     2.475000000    -0.386000000    -0.759000000
O     0.610000000     5.477000000     0.080000000
H     0.651000000     4.830000000    -0.625000000
H     1.517000000     5.575000000     0.368000000
O     5.675000000     3.417000000    -1.561000000
H     6.085000000     4.219000000    -1.237000000
H     4.761000000     3.659000000    -1.710000000
O     0.868000000     3.848000000    -4.746000000
H     0.456000000     3.145000000    -4.245000000
H     0.201000000     4.534000000    -4.790000000
O    -3.994000000    -2.656000000    -3.435000000
H    -3.055000000    -2.659000000    -3.624000000
H    -4.376000000    -3.215000000    -4.112000000
