144
-2850.15975
O     0.555000000    -3.958000000    -3.337000000
H     1.292000000    -4.259000000    -2.805000000
H    -0.030000000    -4.715000000    -3.385000000
O    -3.192000000    -2.884000000     2.013000000
H    -2.792000000    -3.672000000     2.383000000
H    -3.036000000    -2.205000000     2.669000000
O    -2.671000000     3.817000000     3.831000000
H    -3.193000000     3.385000000     4.508000000
H    -3.001000000     3.457000000     3.008000000
O    -3.574000000     6.112000000     1.853000000
H    -2.633000000     6.006000000     1.713000000
H    -3.646000000     6.872000000     2.431000000
O    -2.243000000    -1.954000000    -2.858000000
H    -1.714000000    -2.660000000    -2.487000000
H    -2.194000000    -2.089000000    -3.804000000
O     3.176000000    -2.604000000    -3.247000000
H     2.473000000    -2.906000000    -3.822000000
H     3.167000000    -1.652000000    -3.339000000
O     1.921000000    -6.806000000     0.983000000
H     2.558000000    -6.097000000     1.066000000
H     2.376000000    -7.578000000     1.321000000
O    -0.744000000    -2.529000000     5.376000000
H    -1.117000000    -3.307000000     5.792000000
H    -1.023000000    -2.590000000     4.463000000
O     2.427000000     1.219000000     4.639000000
H     2.466000000     2.158000000     4.458000000
H     2.247000000     0.818000000     3.788000000
O     0.378000000    -3.170000000    -6.219000000
H     1.015000000    -3.587000000    -6.800000000
H     0.502000000    -3.608000000    -5.376000000
O     5.282000000     4.930000000     2.860000000
H     4.871000000     4.098000000     2.625000000
H     5.741000000     5.203000000     2.066000000
O     3.397000000    -1.503000000     3.533000000
H     4.084000000    -1.489000000     4.199000000
H     2.781000000    -2.168000000     3.839000000
O     3.960000000     6.918000000    -1.968000000
H     4.392000000     6.490000000    -1.228000000
H     3.061000000     6.590000000    -1.942000000
O     0.167000000     7.384000000     2.787000000
H    -0.126000000     6.834000000     2.060000000
H     1.122000000     7.378000000     2.721000000
O    -0.762000000    -6.577000000    -3.505000000
H    -0.292000000    -7.316000000    -3.119000000
H    -0.988000000    -6.871000000    -4.387000000
O    -3.785000000     1.676000000     2.463000000
H    -4.260000000     1.684000000     3.294000000
H    -4.043000000     0.852000000     2.048000000
O    -0.502000000     6.018000000    -3.908000000
H    -0.651000000     5.075000000    -3.842000000
H    -0.848000000     6.256000000    -4.768000000
O    -0.606000000     2.197000000     4.960000000
H    -1.145000000     2.667000000     4.324000000
H     0.243000000     2.638000000     4.928000000
O    -0.380000000     3.274000000    -3.486000000
H    -0.512000000     2.329000000    -3.565000000
H    -0.172000000     3.410000000    -2.561000000
O    -0.295000000    -6.727000000    -0.687000000
H     0.399000000    -6.601000000    -0.039000000
H     0.124000000    -6.538000000    -1.526000000
O     2.005000000    -3.541000000     4.623000000
H     1.125000000    -3.219000000     4.819000000
H     2.389000000    -3.726000000     5.480000000
O    -3.752000000    -0.443000000    -0.521000000
H    -3.423000000    -0.836000000    -1.330000000
H    -3.500000000    -1.061000000     0.165000000
O    -2.955000000    -6.404000000    -0.189000000
H    -3.065000000    -6.242000000    -1.126000000
H    -2.008000000    -6.367000000    -0.050000000
O    -0.491000000    -4.520000000     3.339000000
H    -1.021000000    -5.177000000     2.888000000
H     0.181000000    -5.026000000     3.795000000
O    -3.750000000    -1.244000000     3.961000000
H    -4.657000000    -1.537000000     4.045000000
H    -3.453000000    -1.122000000     4.863000000
O     3.179000000     5.423000000     0.475000000
H     2.297000000     5.393000000     0.105000000
H     3.421000000     4.505000000     0.592000000
O     4.770000000    -2.580000000    -0.871000000
H     4.201000000    -2.755000000    -1.621000000
H     5.032000000    -1.666000000    -0.976000000
O    -3.501000000    -5.663000000    -3.006000000
H    -2.733000000    -5.604000000    -3.573000000
H    -4.014000000    -4.882000000    -3.214000000
O    -5.356000000     4.021000000     0.926000000
H    -5.015000000     4.882000000     1.168000000
H    -4.587000000     3.533000000     0.629000000
O     0.936000000    -0.343000000    -6.714000000
H     0.063000000     0.050000000    -6.707000000
H     0.799000000    -1.240000000    -6.409000000
O     2.852000000    -0.111000000    -4.231000000
H     2.351000000     0.086000000    -5.022000000
H     3.295000000     0.710000000    -4.017000000
O     4.157000000     0.324000000    -1.128000000
H     3.462000000     0.905000000    -1.438000000
H     3.928000000     0.141000000    -0.217000000
O     4.155000000     2.332000000    -3.592000000
H     4.449000000     3.222000000    -3.399000000
H     4.877000000     1.944000000    -4.087000000
O     2.130000000    -5.607000000    -1.897000000
H     2.369000000    -5.408000000    -0.992000000
H     2.808000000    -6.214000000    -2.196000000
O    -3.808000000     2.299000000    -0.725000000
H    -2.856000000     2.392000000    -0.756000000
H    -3.957000000     1.353000000    -0.751000000
O     1.635000000     3.483000000     3.570000000
H     1.714000000     4.437000000     3.593000000
H     1.173000000     3.301000000     2.752000000
O    -0.676000000    -0.081000000     6.394000000
H    -0.766000000    -0.795000000     5.762000000
H    -0.863000000     0.711000000     5.889000000
O     2.869000000     0.364000000     1.718000000
H     3.153000000    -0.430000000     2.171000000
H     2.049000000     0.117000000     1.291000000
O    -2.812000000    -6.003000000     2.578000000
H    -3.097000000    -6.576000000     3.290000000
H    -3.045000000    -6.479000000     1.781000000
O     1.354000000     5.857000000    -2.027000000
H     0.671000000     5.835000000    -2.696000000
H     1.188000000     5.083000000    -1.489000000
O    -4.998000000    -4.965000000     1.145000000
H    -4.542000000    -4.127000000     1.213000000
H    -4.428000000    -5.504000000     0.597000000
O     4.104000000     2.800000000     1.856000000
H     3.294000000     3.028000000     2.314000000
H     4.223000000     1.866000000     2.030000000
O    -1.208000000     0.466000000    -3.335000000
H    -1.772000000     0.637000000    -4.089000000
H    -1.489000000    -0.392000000    -3.015000000
O    -2.678000000     6.483000000    -2.045000000
H    -1.730000000     6.453000000    -2.178000000
H    -2.947000000     7.321000000    -2.420000000
O     3.792000000    -4.909000000     0.514000000
H     4.556000000    -5.485000000     0.548000000
H     4.140000000    -4.066000000     0.224000000
O     2.681000000     6.242000000     3.166000000
H     3.405000000     6.108000000     3.777000000
H     3.083000000     6.181000000     2.299000000
O    -0.531000000     5.521000000     4.637000000
H    -1.158000000     4.890000000     4.285000000
H    -0.394000000     6.146000000     3.925000000
O    -1.013000000     5.676000000     1.086000000
H    -0.971000000     5.426000000     0.163000000
H    -0.549000000     4.975000000     1.544000000
