144
-2821.32763
O    -4.054000000    -5.734000000     0.744000000
H    -5.004000000    -5.674000000     0.844000000
H    -3.859000000    -5.196000000    -0.023000000
O     3.390000000    -0.814000000     3.960000000
H     3.158000000    -1.632000000     4.399000000
H     2.914000000    -0.139000000     4.444000000
O     3.907000000     0.830000000     1.715000000
H     4.853000000     0.919000000     1.831000000
H     3.650000000     0.160000000     2.348000000
O    -1.969000000     3.849000000     0.092000000
H    -2.519000000     4.551000000    -0.256000000
H    -1.288000000     3.728000000    -0.570000000
O    -2.218000000     7.470000000    -3.079000000
H    -1.345000000     7.726000000    -2.782000000
H    -2.805000000     7.775000000    -2.387000000
O    -3.149000000    -4.839000000    -1.611000000
H    -2.396000000    -5.410000000    -1.458000000
H    -3.545000000    -5.175000000    -2.415000000
O     3.081000000    -2.918000000     2.073000000
H     2.848000000    -3.122000000     1.167000000
H     3.087000000    -1.961000000     2.109000000
O    -2.415000000     2.755000000     2.445000000
H    -2.455000000     1.800000000     2.493000000
H    -2.232000000     2.940000000     1.524000000
O     1.273000000    -4.808000000    -2.724000000
H     1.723000000    -4.876000000    -3.566000000
H     0.361000000    -4.629000000    -2.954000000
O     2.095000000    -6.141000000     1.143000000
H     2.086000000    -5.240000000     0.822000000
H     2.660000000    -6.609000000     0.528000000
O     3.561000000    -3.498000000     5.136000000
H     3.340000000    -4.355000000     5.499000000
H     3.247000000    -3.532000000     4.233000000
O     5.533000000    -4.038000000     2.278000000
H     5.984000000    -3.289000000     2.669000000
H     4.633000000    -3.737000000     2.155000000
O     0.041000000    -2.690000000     4.782000000
H     0.001000000    -3.180000000     5.603000000
H     0.215000000    -3.355000000     4.115000000
O     2.292000000     2.451000000     4.473000000
H     2.168000000     3.342000000     4.143000000
H     3.242000000     2.339000000     4.509000000
O    -4.673000000    -1.843000000     1.022000000
H    -4.365000000    -2.664000000     0.638000000
H    -4.958000000    -1.321000000     0.272000000
O     1.010000000     6.354000000    -4.816000000
H     0.271000000     6.274000000    -5.420000000
H     1.428000000     5.494000000    -4.834000000
O    -1.512000000     0.106000000    -5.938000000
H    -1.534000000     0.309000000    -6.873000000
H    -1.890000000     0.877000000    -5.516000000
O    -1.032000000     3.543000000    -6.985000000
H    -0.799000000     2.718000000    -7.410000000
H    -0.438000000     3.604000000    -6.237000000
O    -3.392000000     1.672000000    -0.326000000
H    -2.924000000     2.502000000    -0.234000000
H    -3.157000000     1.176000000     0.458000000
O    -0.464000000     1.444000000     5.211000000
H    -1.069000000     2.072000000     5.606000000
H     0.064000000     1.967000000     4.607000000
O     1.167000000     2.686000000    -5.480000000
H     1.709000000     1.923000000    -5.679000000
H     0.963000000     2.599000000    -4.549000000
O     2.034000000    -1.463000000     6.685000000
H     1.192000000    -1.880000000     6.498000000
H     2.686000000    -2.097000000     6.388000000
O    -4.451000000    -1.885000000    -1.777000000
H    -3.877000000    -1.279000000    -2.245000000
H    -4.237000000    -2.745000000    -2.137000000
O     2.261000000     5.156000000     2.994000000
H     2.883000000     4.621000000     2.502000000
H     1.496000000     5.219000000     2.422000000
O     0.598000000    -5.523000000     3.738000000
H    -0.073000000    -6.033000000     4.191000000
H     0.791000000    -6.027000000     2.948000000
O    -3.214000000     0.092000000     2.159000000
H    -3.809000000    -0.566000000     1.798000000
H    -2.820000000    -0.333000000     2.921000000
O    -2.261000000    -0.914000000     4.506000000
H    -1.569000000    -1.567000000     4.610000000
H    -1.841000000    -0.083000000     4.731000000
O     2.817000000     4.380000000    -3.747000000
H     2.030000000     4.259000000    -3.214000000
H     3.039000000     3.499000000    -4.048000000
O     4.822000000    -2.111000000    -1.264000000
H     4.174000000    -1.560000000    -0.826000000
H     5.652000000    -1.887000000    -0.842000000
O    -0.961000000    -3.518000000    -4.067000000
H    -1.658000000    -4.167000000    -4.157000000
H    -1.394000000    -2.752000000    -3.690000000
O     2.826000000    -0.368000000    -0.520000000
H     1.922000000    -0.078000000    -0.403000000
H     3.272000000    -0.090000000     0.280000000
O    -5.348000000    -2.518000000     3.627000000
H    -5.091000000    -2.278000000     2.737000000
H    -4.771000000    -3.247000000     3.854000000
O     4.741000000    -2.002000000    -4.562000000
H     4.021000000    -1.691000000    -4.013000000
H     5.366000000    -2.381000000    -3.944000000
O     2.639000000    -0.378000000    -3.943000000
H     2.706000000     0.048000000    -3.089000000
H     3.124000000     0.195000000    -4.536000000
O    -0.435000000    -6.880000000    -1.038000000
H     0.321000000    -7.287000000    -0.615000000
H    -0.346000000    -7.114000000    -1.962000000
O     1.476000000    -2.359000000    -5.271000000
H     1.889000000    -1.619000000    -4.826000000
H     0.755000000    -2.613000000    -4.695000000
O     3.291000000     1.026000000    -6.247000000
H     2.918000000     1.561000000    -6.947000000
H     4.231000000     1.014000000    -6.430000000
O    -1.747000000     2.476000000    -4.296000000
H    -2.066000000     3.311000000    -3.952000000
H    -0.809000000     2.480000000    -4.103000000
O    -2.376000000     4.448000000     4.640000000
H    -2.281000000     3.875000000     3.879000000
H    -2.909000000     5.178000000     4.325000000
O    -0.195000000     5.372000000     1.937000000
H    -0.714000000     6.174000000     1.995000000
H    -0.730000000     4.777000000     1.412000000
O     3.947000000     3.620000000     1.602000000
H     3.435000000     3.795000000     0.812000000
H     3.814000000     2.687000000     1.771000000
O     2.329000000     4.683000000    -0.117000000
H     2.211000000     5.535000000    -0.537000000
H     1.670000000     4.121000000    -0.525000000
O     0.302000000     8.290000000    -0.212000000
H     1.094000000     8.807000000    -0.362000000
H     0.457000000     7.473000000    -0.686000000
O    -4.347000000     1.539000000    -3.086000000
H    -4.167000000     1.531000000    -2.146000000
H    -3.483000000     1.583000000    -3.495000000
O    -2.724000000     4.753000000    -3.570000000
H    -3.396000000     4.941000000    -2.916000000
H    -2.451000000     5.614000000    -3.888000000
O     2.270000000    -3.440000000    -0.414000000
H     2.005000000    -4.119000000    -1.034000000
H     2.309000000    -2.639000000    -0.938000000
O     0.438000000     6.342000000    -2.070000000
H     0.864000000     6.270000000    -2.925000000
H     0.179000000     5.446000000    -1.856000000
O    -2.576000000    -1.356000000    -3.715000000
H    -1.917000000    -0.889000000    -4.230000000
H    -3.352000000    -1.371000000    -4.276000000
