144
-2797.57214
O    -0.889000000    -6.354000000    -2.549000000
H    -0.154000000    -6.555000000    -1.970000000
H    -1.004000000    -5.407000000    -2.471000000
O     3.890000000    -4.302000000    -0.517000000
H     3.434000000    -4.189000000    -1.351000000
H     4.729000000    -3.856000000    -0.641000000
O    -1.042000000     2.706000000     6.433000000
H    -1.802000000     3.126000000     6.837000000
H    -1.358000000     1.842000000     6.169000000
O    -2.533000000     3.317000000     3.053000000
H    -3.219000000     3.281000000     3.719000000
H    -2.686000000     2.544000000     2.509000000
O     0.433000000    -5.593000000     5.641000000
H     1.208000000    -6.143000000     5.758000000
H     0.303000000    -5.561000000     4.693000000
O    -2.705000000    -0.264000000    -3.142000000
H    -3.005000000    -0.592000000    -2.295000000
H    -3.247000000    -0.726000000    -3.783000000
O     3.633000000    -5.239000000    -3.726000000
H     2.960000000    -4.690000000    -3.323000000
H     3.271000000    -6.124000000    -3.695000000
O    -2.975000000    -3.648000000    -4.104000000
H    -3.450000000    -3.058000000    -4.689000000
H    -2.544000000    -4.270000000    -4.690000000
O     1.343000000    -6.156000000     2.512000000
H     1.625000000    -7.060000000     2.652000000
H     0.468000000    -6.234000000     2.131000000
O    -4.089000000     3.525000000    -3.532000000
H    -3.836000000     4.446000000    -3.587000000
H    -3.303000000     3.044000000    -3.792000000
O     1.723000000     7.899000000    -0.962000000
H     1.506000000     6.973000000    -0.857000000
H     1.057000000     8.361000000    -0.452000000
O     2.171000000     6.334000000    -5.433000000
H     1.659000000     5.562000000    -5.191000000
H     1.894000000     7.009000000    -4.814000000
O    -1.502000000    -3.549000000     7.190000000
H    -1.372000000    -3.038000000     6.391000000
H    -0.922000000    -4.304000000     7.088000000
O    -4.313000000    -2.765000000     5.611000000
H    -5.241000000    -2.599000000     5.444000000
H    -4.271000000    -2.962000000     6.547000000
O     5.288000000     4.356000000     0.618000000
H     4.883000000     3.568000000     0.256000000
H     6.226000000     4.232000000     0.473000000
O     3.544000000    -1.408000000     1.872000000
H     3.138000000    -2.271000000     1.789000000
H     3.934000000    -1.410000000     2.746000000
O    -2.753000000     2.749000000    -6.256000000
H    -2.418000000     2.460000000    -5.407000000
H    -2.352000000     2.153000000    -6.888000000
O    -3.946000000    -0.494000000     3.890000000
H    -4.278000000     0.080000000     4.580000000
H    -3.918000000    -1.362000000     4.293000000
O     1.690000000     0.190000000     3.901000000
H     1.962000000    -0.152000000     3.049000000
H     1.800000000    -0.548000000     4.501000000
O    -1.409000000     6.920000000    -0.905000000
H    -0.941000000     6.330000000    -1.496000000
H    -2.259000000     6.501000000    -0.772000000
O     1.085000000     3.913000000    -4.959000000
H     0.993000000     3.370000000    -5.742000000
H     1.072000000     3.290000000    -4.233000000
O    -0.681000000    -7.604000000     0.335000000
H    -1.498000000    -7.193000000     0.053000000
H    -0.024000000    -6.913000000     0.249000000
O     2.875000000    -3.897000000     2.230000000
H     2.372000000    -4.635000000     2.573000000
H     3.101000000    -4.156000000     1.337000000
O     4.661000000     3.260000000    -4.912000000
H     4.377000000     2.489000000    -5.403000000
H     4.448000000     3.056000000    -4.001000000
O    -1.501000000     2.098000000    -4.009000000
H    -1.791000000     1.344000000    -3.496000000
H    -0.588000000     2.227000000    -3.751000000
O    -3.358000000    -4.088000000    -1.506000000
H    -3.432000000    -3.933000000    -2.448000000
H    -3.331000000    -3.213000000    -1.120000000
O     1.001000000     2.725000000     4.184000000
H     0.293000000     2.450000000     4.766000000
H     1.338000000     1.909000000     3.815000000
O     4.015000000     6.350000000     1.751000000
H     3.280000000     6.194000000     1.158000000
H     4.676000000     5.710000000     1.487000000
O     1.601000000    -2.231000000     5.309000000
H     2.050000000    -2.908000000     4.803000000
H     1.494000000    -2.613000000     6.180000000
O     3.704000000     4.198000000    -2.036000000
H     2.787000000     4.031000000    -2.256000000
H     3.905000000     3.562000000    -1.349000000
O    -3.083000000    -6.650000000    -1.072000000
H    -3.486000000    -5.783000000    -1.121000000
H    -2.432000000    -6.652000000    -1.773000000
O    -3.424000000     1.213000000     1.128000000
H    -3.890000000     1.003000000     0.319000000
H    -2.846000000     0.463000000     1.273000000
O    -0.175000000    -3.158000000    -3.604000000
H    -1.049000000    -3.549000000    -3.608000000
H    -0.263000000    -2.370000000    -4.140000000
O     2.346000000    -3.308000000    -2.760000000
H     1.475000000    -3.364000000    -3.151000000
H     2.565000000    -2.377000000    -2.794000000
O     4.174000000    -1.082000000    -2.250000000
H     4.217000000    -0.199000000    -2.616000000
H     4.698000000    -1.036000000    -1.450000000
O     3.301000000     1.204000000    -3.369000000
H     2.422000000     1.567000000    -3.261000000
H     3.264000000     0.734000000    -4.202000000
O     1.174000000    -5.993000000    -0.725000000
H     2.034000000    -6.303000000    -0.444000000
H     1.308000000    -5.069000000    -0.933000000
O    -5.430000000    -0.757000000     1.814000000
H    -6.285000000    -0.954000000     2.197000000
H    -4.832000000    -0.731000000     2.561000000
O     1.604000000     5.237000000     0.632000000
H     0.881000000     5.201000000     1.259000000
H     1.361000000     4.611000000    -0.050000000
O    -0.804000000     0.189000000     5.510000000
H    -1.165000000    -0.313000000     4.780000000
H     0.057000000     0.472000000     5.204000000
O    -0.863000000     5.035000000    -2.884000000
H    -0.586000000     4.793000000    -3.768000000
H    -0.421000000     4.405000000    -2.314000000
O     4.228000000     1.960000000    -0.369000000
H     3.379000000     1.555000000    -0.548000000
H     4.811000000     1.223000000    -0.190000000
O    -0.506000000    -0.934000000    -5.067000000
H    -1.087000000    -0.555000000    -4.408000000
H    -1.055000000    -1.029000000    -5.845000000
O    -0.226000000     4.876000000     2.535000000
H     0.488000000     4.280000000     2.761000000
H    -1.013000000     4.444000000     2.869000000
O    -2.516000000     3.849000000    -0.039000000
H    -2.068000000     3.868000000     0.807000000
H    -3.067000000     3.067000000    -0.001000000
O     4.000000000     3.215000000     3.233000000
H     3.933000000     3.809000000     2.485000000
H     3.093000000     3.000000000     3.450000000
O     3.232000000     1.406000000    -6.333000000
H     2.708000000     2.120000000    -6.696000000
H     3.459000000     0.866000000    -7.090000000
O    -3.977000000    -1.260000000    -0.715000000
H    -4.807000000    -0.892000000    -1.020000000
H    -4.162000000    -1.561000000     0.175000000
