144
-2786.98871
O     0.194000000    -6.665000000     1.742000000
H     0.090000000    -7.503000000     2.193000000
H    -0.452000000    -6.691000000     1.037000000
O    -2.311000000     4.147000000     2.505000000
H    -1.427000000     4.433000000     2.273000000
H    -2.757000000     4.947000000     2.782000000
O    -3.798000000     0.433000000    -0.107000000
H    -3.099000000    -0.089000000     0.288000000
H    -3.977000000     1.119000000     0.536000000
O    -4.005000000    -4.643000000    -1.222000000
H    -4.462000000    -5.438000000    -0.947000000
H    -4.701000000    -3.997000000    -1.344000000
O     4.515000000    -3.797000000     2.936000000
H     4.053000000    -2.961000000     2.869000000
H     5.018000000    -3.728000000     3.747000000
O     3.853000000     3.457000000    -3.206000000
H     3.197000000     2.831000000    -2.899000000
H     3.392000000     3.986000000    -3.858000000
O     2.401000000    -6.026000000     3.331000000
H     1.604000000    -6.019000000     2.802000000
H     2.394000000    -6.880000000     3.763000000
O    -1.593000000     4.496000000    -2.903000000
H    -2.125000000     3.701000000    -2.889000000
H    -2.138000000     5.142000000    -3.352000000
O     6.539000000     2.859000000    -3.274000000
H     5.614000000     3.094000000    -3.341000000
H     6.542000000     2.031000000    -2.793000000
O     0.103000000    -0.576000000     4.754000000
H     0.363000000    -0.680000000     3.838000000
H     0.683000000    -1.166000000     5.236000000
O     4.492000000     2.960000000     2.561000000
H     3.814000000     2.291000000     2.658000000
H     4.401000000     3.265000000     1.658000000
O    -5.683000000     3.211000000    -0.299000000
H    -5.522000000     2.751000000     0.525000000
H    -5.012000000     2.878000000    -0.894000000
O     3.379000000     6.695000000     0.961000000
H     3.228000000     7.222000000     0.177000000
H     3.837000000     5.917000000     0.644000000
O     1.281000000     2.238000000    -5.436000000
H     1.933000000     2.884000000    -5.711000000
H     1.447000000     2.113000000    -4.502000000
O     1.799000000    -2.235000000     6.216000000
H     2.076000000    -3.133000000     6.036000000
H     1.539000000    -2.245000000     7.137000000
O     4.081000000    -3.086000000    -3.372000000
H     4.083000000    -2.704000000    -4.250000000
H     3.186000000    -3.402000000    -3.251000000
O    -0.916000000    -1.110000000    -4.928000000
H    -0.371000000    -1.897000000    -4.924000000
H    -1.785000000    -1.422000000    -5.180000000
O    -1.780000000     1.710000000    -4.366000000
H    -1.355000000     0.854000000    -4.406000000
H    -1.458000000     2.173000000    -5.140000000
O     3.030000000    -2.444000000    -5.888000000
H     2.422000000    -1.709000000    -5.968000000
H     2.480000000    -3.222000000    -5.985000000
O    -0.056000000     4.808000000     0.115000000
H     0.193000000     4.225000000    -0.602000000
H     0.288000000     4.382000000     0.900000000
O     3.743000000     4.140000000    -0.293000000
H     4.175000000     3.714000000    -1.033000000
H     2.846000000     3.806000000    -0.314000000
O    -1.551000000    -0.348000000     6.928000000
H    -1.143000000    -0.241000000     6.069000000
H    -0.887000000    -0.047000000     7.548000000
O    -4.906000000    -4.822000000     2.256000000
H    -4.167000000    -4.655000000     1.671000000
H    -4.609000000    -5.536000000     2.820000000
O     5.668000000     0.587000000    -2.184000000
H     4.739000000     0.393000000    -2.308000000
H     5.741000000     0.823000000    -1.259000000
O     3.839000000    -5.016000000     0.451000000
H     4.178000000    -5.244000000     1.317000000
H     2.910000000    -4.839000000     0.597000000
O    -0.006000000    -5.272000000    -0.983000000
H     0.592000000    -6.008000000    -1.112000000
H    -0.677000000    -5.388000000    -1.656000000
O    -4.156000000     2.090000000     1.996000000
H    -4.479000000     2.018000000     2.894000000
H    -3.428000000     2.709000000     2.052000000
O     5.539000000    -0.545000000     0.652000000
H     5.554000000    -1.473000000     0.419000000
H     6.460000000    -0.285000000     0.660000000
O     2.794000000    -1.256000000     3.491000000
H     3.539000000    -0.886000000     3.964000000
H     2.343000000    -1.797000000     4.139000000
O     3.687000000    -0.003000000    -3.945000000
H     2.970000000     0.602000000    -3.757000000
H     3.376000000    -0.850000000    -3.624000000
O    -4.216000000     1.504000000     4.765000000
H    -3.311000000     1.763000000     4.939000000
H    -4.602000000     1.384000000     5.633000000
O     1.402000000    -0.322000000    -6.201000000
H     1.549000000     0.601000000    -5.994000000
H     0.560000000    -0.527000000    -5.796000000
O    -3.390000000     2.306000000    -2.189000000
H    -3.484000000     1.764000000    -1.406000000
H    -2.980000000     1.728000000    -2.833000000
O     1.001000000     5.147000000    -3.234000000
H     0.051000000     5.207000000    -3.341000000
H     1.133000000     4.367000000    -2.696000000
O     1.480000000    -3.703000000    -2.995000000
H     0.959000000    -4.007000000    -3.738000000
H     1.104000000    -4.153000000    -2.239000000
O     1.957000000     1.178000000     2.162000000
H     2.493000000     0.440000000     2.452000000
H     1.184000000     0.773000000     1.769000000
O     0.570000000     3.515000000     2.810000000
H     0.113000000     3.223000000     3.599000000
H     1.110000000     2.767000000     2.555000000
O    -1.142000000     2.909000000    -6.715000000
H    -0.284000000     2.581000000    -6.445000000
H    -0.960000000     3.455000000    -7.480000000
O    -0.217000000     7.478000000    -1.364000000
H     0.333000000     6.713000000    -1.194000000
H    -0.140000000     8.009000000    -0.571000000
O    -6.902000000    -1.923000000     1.534000000
H    -6.619000000    -1.895000000     2.448000000
H    -6.372000000    -2.616000000     1.140000000
O    -6.074000000    -2.052000000     4.115000000
H    -5.190000000    -2.341000000     4.341000000
H    -6.429000000    -1.705000000     4.934000000
O    -2.398000000    -3.871000000    -3.161000000
H    -2.687000000    -3.020000000    -3.488000000
H    -3.093000000    -4.148000000    -2.564000000
O    -5.948000000    -0.490000000    -1.732000000
H    -5.114000000    -0.401000000    -1.271000000
H    -6.603000000    -0.187000000    -1.104000000
O     2.585000000     7.008000000    -4.027000000
H     2.035000000     7.590000000    -4.552000000
H     1.998000000     6.301000000    -3.759000000
O    -2.747000000     5.492000000    -0.762000000
H    -1.967000000     4.943000000    -0.682000000
H    -2.978000000     5.445000000    -1.690000000
O     0.098000000     2.103000000     5.251000000
H     0.321000000     2.211000000     6.175000000
H     0.289000000     1.183000000     5.064000000
O     5.697000000     0.719000000    -5.557000000
H     5.035000000     0.680000000    -4.867000000
H     5.744000000    -0.176000000    -5.894000000
O    -2.380000000    -5.504000000     0.680000000
H    -1.533000000    -5.246000000     0.315000000
H    -3.008000000    -5.318000000    -0.018000000
