144
-2813.55546
O    -4.336000000    -5.380000000    -0.355000000
H    -5.205000000    -4.984000000    -0.293000000
H    -4.482000000    -6.206000000    -0.816000000
O     2.713000000    -2.056000000     5.881000000
H     2.327000000    -2.805000000     5.426000000
H     2.199000000    -1.972000000     6.684000000
O     1.596000000     4.089000000     3.073000000
H     0.952000000     4.314000000     3.745000000
H     1.342000000     3.214000000     2.781000000
O    -5.553000000     4.077000000    -2.690000000
H    -5.190000000     4.293000000    -1.831000000
H    -5.054000000     3.312000000    -2.975000000
O    -2.509000000     3.779000000     0.982000000
H    -1.645000000     4.045000000     0.666000000
H    -2.490000000     3.968000000     1.920000000
O    -4.322000000    -0.282000000    -2.017000000
H    -3.536000000    -0.764000000    -2.273000000
H    -4.042000000     0.258000000    -1.277000000
O    -2.926000000    -3.037000000    -1.020000000
H    -3.444000000    -3.824000000    -0.851000000
H    -3.042000000    -2.501000000    -0.235000000
O     4.381000000     3.524000000    -4.309000000
H     4.047000000     4.403000000    -4.489000000
H     3.868000000     2.952000000    -4.879000000
O    -2.270000000     5.034000000    -3.658000000
H    -2.274000000     4.195000000    -3.197000000
H    -3.025000000     4.989000000    -4.245000000
O    -0.915000000    -6.126000000     3.357000000
H    -1.192000000    -6.330000000     2.464000000
H    -1.356000000    -5.301000000     3.561000000
O     1.200000000    -4.346000000     5.494000000
H     1.603000000    -4.881000000     6.178000000
H     1.480000000    -4.754000000     4.675000000
O     0.353000000     0.833000000     5.501000000
H    -0.016000000     0.639000000     6.362000000
H    -0.368000000     0.678000000     4.890000000
O    -1.492000000     0.866000000     3.591000000
H    -0.905000000     0.515000000     2.921000000
H    -2.048000000     0.126000000     3.834000000
O     5.269000000     1.840000000     0.099000000
H     5.078000000     1.349000000     0.898000000
H     4.480000000     2.359000000    -0.058000000
O    -4.317000000    -0.245000000     1.643000000
H    -4.284000000     0.637000000     1.274000000
H    -4.611000000    -0.117000000     2.545000000
O    -2.143000000    -3.878000000     4.382000000
H    -2.320000000    -2.938000000     4.400000000
H    -2.240000000    -4.158000000     5.292000000
O     3.258000000     5.747000000     0.098000000
H     3.349000000     6.346000000    -0.644000000
H     3.294000000     4.875000000    -0.294000000
O     0.387000000     3.186000000    -5.107000000
H     0.261000000     4.048000000    -4.710000000
H     0.652000000     2.623000000    -4.379000000
O     2.751000000     3.396000000    -6.466000000
H     2.678000000     2.592000000    -6.981000000
H     1.856000000     3.731000000    -6.416000000
O     1.956000000    -5.669000000    -1.340000000
H     1.919000000    -4.778000000    -1.688000000
H     2.391000000    -5.578000000    -0.492000000
O    -0.543000000    -2.640000000     6.967000000
H    -0.283000000    -3.231000000     6.261000000
H    -1.417000000    -2.939000000     7.220000000
O     4.633000000    -1.915000000    -5.319000000
H     4.375000000    -1.013000000    -5.124000000
H     4.444000000    -2.022000000    -6.251000000
O    -1.434000000     1.674000000    -6.324000000
H    -0.886000000     1.202000000    -6.951000000
H    -0.812000000     2.166000000    -5.786000000
O    -0.070000000     4.466000000     0.310000000
H     0.299000000     4.269000000    -0.551000000
H     0.628000000     4.242000000     0.926000000
O     3.377000000     3.442000000    -1.326000000
H     3.981000000     3.529000000    -2.063000000
H     2.553000000     3.159000000    -1.724000000
O    -4.538000000    -5.248000000     2.807000000
H    -3.827000000    -4.814000000     3.279000000
H    -4.863000000    -4.583000000     2.200000000
O     5.962000000     1.221000000    -3.314000000
H     5.078000000     1.149000000    -3.676000000
H     5.945000000     0.671000000    -2.531000000
O     3.669000000    -4.076000000     1.933000000
H     4.009000000    -3.421000000     2.543000000
H     3.604000000    -4.877000000     2.453000000
O    -1.075000000    -5.480000000    -1.642000000
H    -0.203000000    -5.313000000    -1.999000000
H    -1.597000000    -4.729000000    -1.923000000
O    -4.416000000     2.290000000    -0.396000000
H    -5.239000000     2.498000000     0.046000000
H    -3.777000000     2.885000000    -0.004000000
O     6.028000000    -1.166000000    -1.448000000
H     5.440000000    -1.854000000    -1.136000000
H     6.281000000    -0.690000000    -0.657000000
O     3.380000000     0.471000000    -4.230000000
H     2.654000000     1.024000000    -3.941000000
H     3.210000000    -0.379000000    -3.823000000
O     4.512000000    -3.330000000    -0.406000000
H     4.155000000    -3.588000000     0.443000000
H     4.490000000    -4.133000000    -0.928000000
O    -3.080000000    -1.366000000     4.933000000
H    -3.930000000    -1.791000000     5.049000000
H    -2.908000000    -0.942000000     5.774000000
O    -5.236000000    -2.852000000     1.047000000
H    -5.789000000    -2.899000000     0.268000000
H    -5.004000000    -1.926000000     1.121000000
O     0.504000000    -0.783000000    -3.996000000
H     0.836000000     0.084000000    -3.762000000
H    -0.383000000    -0.805000000    -3.638000000
O    -2.969000000     2.410000000    -3.513000000
H    -3.293000000     1.577000000    -3.170000000
H    -3.221000000     2.403000000    -4.436000000
O     0.467000000     5.491000000    -3.390000000
H    -0.468000000     5.619000000    -3.551000000
H     0.506000000     4.762000000    -2.771000000
O     1.570000000    -3.349000000    -2.803000000
H     1.122000000    -3.963000000    -3.385000000
H     1.424000000    -2.491000000    -3.202000000
O     3.964000000     0.335000000     2.162000000
H     3.873000000     0.708000000     3.039000000
H     4.864000000     0.008000000     2.133000000
O     1.489000000     1.638000000     1.876000000
H     2.251000000     1.208000000     2.263000000
H     1.168000000     1.016000000     1.224000000
O    -0.567000000     7.819000000    -1.522000000
H     0.042000000     8.518000000    -1.761000000
H    -0.183000000     7.028000000    -1.901000000
O     4.026000000     0.904000000    -7.014000000
H     4.943000000     0.817000000    -7.273000000
H     4.044000000     0.885000000    -6.057000000
O    -5.145000000     1.510000000     3.835000000
H    -4.713000000     2.272000000     4.220000000
H    -5.495000000     1.029000000     4.585000000
O    -1.975000000    -0.994000000    -3.175000000
H    -1.890000000    -1.323000000    -4.070000000
H    -2.012000000    -1.782000000    -2.633000000
O     2.990000000     5.960000000    -4.450000000
H     2.711000000     6.266000000    -5.313000000
H     2.189000000     5.634000000    -4.040000000
O    -2.812000000     3.272000000     3.845000000
H    -2.266000000     3.732000000     4.482000000
H    -2.250000000     2.576000000     3.505000000
O    -1.291000000    -6.819000000     0.644000000
H    -1.350000000    -6.341000000    -0.183000000
H    -0.523000000    -7.381000000     0.541000000
