144
-2773.58242
O     0.591000000     1.654000000    -4.356000000
H     1.410000000     1.363000000    -3.956000000
H     0.421000000     1.016000000    -5.048000000
O    -2.795000000     1.161000000    -4.763000000
H    -2.654000000     0.683000000    -5.580000000
H    -2.958000000     0.478000000    -4.111000000
O     0.734000000     3.081000000     3.962000000
H     1.419000000     3.740000000     3.854000000
H     1.197000000     2.302000000     4.269000000
O    -3.011000000    -3.402000000    -1.073000000
H    -2.626000000    -4.275000000    -0.992000000
H    -2.652000000    -2.913000000    -0.332000000
O     5.738000000    -6.814000000    -0.659000000
H     5.449000000    -5.921000000    -0.848000000
H     6.682000000    -6.798000000    -0.816000000
O    -6.320000000    -0.775000000     2.451000000
H    -5.668000000    -1.099000000     1.830000000
H    -6.700000000    -0.009000000     2.021000000
O    -0.494000000    -2.785000000     5.355000000
H    -0.185000000    -3.084000000     4.500000000
H    -0.159000000    -3.436000000     5.972000000
O     0.173000000    -3.727000000     2.850000000
H     0.729000000    -3.189000000     2.286000000
H     0.516000000    -4.615000000     2.747000000
O    -1.841000000    -2.555000000    -5.816000000
H    -0.907000000    -2.438000000    -5.993000000
H    -1.979000000    -3.500000000    -5.872000000
O    -0.091000000     5.910000000     0.853000000
H    -0.945000000     5.730000000     0.458000000
H    -0.207000000     5.703000000     1.780000000
O    -2.339000000     6.056000000     2.999000000
H    -1.524000000     6.504000000     3.226000000
H    -2.226000000     5.167000000     3.337000000
O     4.218000000    -4.252000000    -0.734000000
H     3.339000000    -4.086000000    -1.073000000
H     4.200000000    -3.907000000     0.159000000
O     1.364000000     4.471000000    -5.514000000
H     1.040000000     3.715000000    -5.024000000
H     1.777000000     4.094000000    -6.290000000
O    -6.107000000     5.193000000     2.442000000
H    -5.538000000     4.443000000     2.612000000
H    -6.927000000     4.806000000     2.134000000
O    -4.534000000     3.001000000     3.218000000
H    -3.584000000     3.059000000     3.325000000
H    -4.782000000     2.216000000     3.707000000
O     4.298000000     2.517000000     1.276000000
H     4.203000000     2.111000000     2.137000000
H     4.526000000     1.793000000     0.693000000
O    -1.923000000     3.422000000     4.168000000
H    -2.109000000     2.559000000     4.536000000
H    -0.980000000     3.412000000     4.000000000
O    -1.882000000     4.339000000    -4.298000000
H    -2.095000000     3.454000000    -4.595000000
H    -1.164000000     4.216000000    -3.677000000
O     2.352000000     7.167000000    -0.185000000
H     2.200000000     6.968000000    -1.109000000
H     1.952000000     6.437000000     0.287000000
O    -4.207000000     5.299000000    -2.392000000
H    -4.236000000     4.343000000    -2.414000000
H    -3.275000000     5.509000000    -2.339000000
O    -4.532000000    -0.029000000    -2.118000000
H    -3.889000000    -0.525000000    -2.625000000
H    -4.483000000    -0.403000000    -1.238000000
O     2.858000000    -0.976000000     4.493000000
H     3.009000000    -0.424000000     5.260000000
H     2.388000000    -1.737000000     4.834000000
O    -1.245000000     0.914000000     5.413000000
H    -1.863000000     0.195000000     5.284000000
H    -0.863000000     0.749000000     6.275000000
O    -0.414000000    -5.511000000    -5.196000000
H    -0.912000000    -6.006000000    -4.545000000
H     0.193000000    -4.980000000    -4.680000000
O     5.438000000     0.240000000     0.272000000
H     5.057000000    -0.237000000     1.009000000
H     5.720000000    -0.443000000    -0.335000000
O     4.297000000    -1.500000000     1.965000000
H     3.583000000    -2.007000000     1.579000000
H     4.000000000    -1.304000000     2.853000000
O     4.745000000    -4.140000000    -3.485000000
H     4.088000000    -3.475000000    -3.695000000
H     4.776000000    -4.151000000    -2.528000000
O     4.123000000     1.577000000     3.796000000
H     4.728000000     0.923000000     4.147000000
H     3.326000000     1.470000000     4.317000000
O    -2.348000000    -4.996000000     3.092000000
H    -1.451000000    -4.662000000     3.085000000
H    -2.394000000    -5.577000000     2.332000000
O     3.520000000    -4.527000000     2.537000000
H     3.010000000    -4.115000000     1.839000000
H     4.068000000    -3.822000000     2.882000000
O     3.098000000    -7.031000000     3.691000000
H     2.671000000    -7.454000000     2.947000000
H     3.479000000    -6.232000000     3.327000000
O     2.832000000     1.628000000    -2.967000000
H     2.750000000     1.744000000    -2.020000000
H     3.716000000     1.283000000    -3.091000000
O     0.439000000    -6.444000000     2.012000000
H     0.506000000    -6.262000000     1.075000000
H    -0.202000000    -7.152000000     2.074000000
O    -5.240000000     2.596000000    -2.196000000
H    -5.095000000     1.653000000    -2.119000000
H    -6.187000000     2.700000000    -2.106000000
O    -3.044000000    -1.880000000    -3.650000000
H    -2.630000000    -2.191000000    -4.455000000
H    -2.725000000    -2.476000000    -2.972000000
O     3.548000000    -1.409000000    -3.416000000
H     4.093000000    -0.682000000    -3.719000000
H     4.013000000    -1.755000000    -2.654000000
O    -2.818000000     5.852000000     0.196000000
H    -2.826000000     5.908000000     1.152000000
H    -3.549000000     5.270000000    -0.016000000
O    -5.273000000     2.439000000    -4.831000000
H    -5.240000000     2.500000000    -3.876000000
H    -4.369000000     2.263000000    -5.091000000
O     0.785000000    -5.854000000    -0.541000000
H     1.308000000    -5.062000000    -0.414000000
H     0.999000000    -6.141000000    -1.429000000
O     1.097000000    -2.612000000    -6.184000000
H     1.806000000    -1.972000000    -6.234000000
H     1.463000000    -3.406000000    -6.576000000
O     2.234000000     2.071000000    -0.487000000
H     2.642000000     2.335000000     0.337000000
H     1.438000000     1.610000000    -0.224000000
O     2.882000000    -6.222000000    -4.344000000
H     2.385000000    -5.515000000    -3.933000000
H     3.793000000    -6.041000000    -4.112000000
O     6.203000000    -1.767000000    -1.645000000
H     6.985000000    -1.978000000    -2.156000000
H     6.359000000    -2.170000000    -0.791000000
O     1.316000000    -4.018000000    -3.412000000
H     1.494000000    -3.837000000    -2.489000000
H     1.285000000    -3.154000000    -3.824000000
O     2.261000000     1.744000000     5.833000000
H     1.658000000     1.490000000     6.532000000
H     3.018000000     2.108000000     6.290000000
O     1.061000000     3.752000000    -2.349000000
H     1.525000000     3.506000000    -1.549000000
H     1.105000000     2.972000000    -2.901000000
O    -1.754000000    -2.499000000     1.084000000
H    -1.783000000    -2.581000000     2.038000000
H    -1.006000000    -1.925000000     0.916000000
O     1.804000000     6.298000000    -2.728000000
H     1.428000000     5.456000000    -2.473000000
H     2.584000000     6.070000000    -3.234000000
