144
-2802.96784
O    -3.087000000    -4.907000000    -4.024000000
H    -2.599000000    -4.596000000    -4.787000000
H    -2.413000000    -5.207000000    -3.415000000
O    -1.351000000    -6.543000000    -1.386000000
H    -0.843000000    -6.803000000    -0.618000000
H    -1.865000000    -7.321000000    -1.607000000
O    -0.364000000     2.034000000    -5.472000000
H     0.050000000     2.446000000    -6.231000000
H     0.362000000     1.638000000    -4.989000000
O     4.994000000     1.855000000    -0.509000000
H     5.110000000     1.919000000    -1.457000000
H     4.525000000     1.030000000    -0.381000000
O     3.361000000    -2.061000000     5.746000000
H     3.647000000    -1.195000000     5.458000000
H     3.744000000    -2.162000000     6.618000000
O    -4.275000000    -0.433000000     2.886000000
H    -3.997000000    -1.134000000     2.296000000
H    -5.227000000    -0.515000000     2.924000000
O     1.419000000    -4.827000000     6.570000000
H     1.596000000    -4.058000000     6.028000000
H     1.533000000    -5.570000000     5.978000000
O    -4.605000000    -5.496000000     2.335000000
H    -5.264000000    -5.243000000     1.689000000
H    -3.883000000    -4.884000000     2.192000000
O     2.909000000     4.824000000    -3.041000000
H     2.002000000     4.906000000    -3.335000000
H     2.841000000     4.543000000    -2.129000000
O     0.882000000    -1.506000000     5.003000000
H     0.791000000    -2.066000000     4.231000000
H     1.790000000    -1.627000000     5.281000000
O    -2.937000000     3.790000000    -3.796000000
H    -2.844000000     3.762000000    -4.748000000
H    -3.300000000     4.658000000    -3.616000000
O     2.723000000    -4.278000000    -0.333000000
H     2.929000000    -3.493000000    -0.841000000
H     1.980000000    -4.022000000     0.212000000
O    -2.793000000     1.190000000    -4.706000000
H    -2.926000000     1.931000000    -4.115000000
H    -1.939000000     1.353000000    -5.106000000
O    -3.618000000    -2.326000000     1.292000000
H    -4.378000000    -2.297000000     0.710000000
H    -3.049000000    -2.994000000     0.910000000
O     1.999000000     4.294000000     2.287000000
H     1.926000000     3.556000000     2.892000000
H     1.190000000     4.789000000     2.414000000
O     2.887000000     3.840000000    -0.373000000
H     2.467000000     3.788000000     0.485000000
H     3.690000000     3.327000000    -0.279000000
O    -0.321000000    -0.178000000     7.124000000
H    -1.182000000     0.056000000     6.778000000
H     0.051000000    -0.765000000     6.465000000
O     0.186000000     4.477000000    -4.216000000
H     0.194000000     3.583000000    -4.559000000
H    -0.546000000     4.490000000    -3.599000000
O    -4.912000000     2.852000000     0.035000000
H    -4.525000000     2.005000000    -0.188000000
H    -5.358000000     3.130000000    -0.765000000
O    -0.881000000     7.508000000    -1.109000000
H    -0.129000000     7.192000000    -0.608000000
H    -0.522000000     7.722000000    -1.971000000
O     0.705000000    -6.396000000     0.637000000
H     0.640000000    -6.810000000     1.497000000
H     0.541000000    -5.468000000     0.804000000
O     2.770000000    -4.562000000     3.411000000
H     1.980000000    -4.125000000     3.095000000
H     3.333000000    -3.850000000     3.716000000
O     6.319000000    -3.198000000     2.408000000
H     6.046000000    -3.776000000     3.120000000
H     5.627000000    -2.539000000     2.355000000
O     4.715000000    -0.847000000    -0.223000000
H     4.970000000    -1.066000000     0.673000000
H     5.449000000    -1.143000000    -0.761000000
O     1.660000000     0.633000000    -4.607000000
H     2.255000000     0.642000000    -3.857000000
H     2.164000000     0.219000000    -5.307000000
O    -5.639000000     1.081000000    -3.508000000
H    -5.485000000     1.968000000    -3.182000000
H    -5.211000000     1.063000000    -4.364000000
O    -3.675000000     0.441000000    -0.507000000
H    -2.784000000     0.163000000    -0.719000000
H    -4.220000000    -0.314000000    -0.727000000
O     0.660000000    -7.602000000     3.016000000
H    -0.264000000    -7.406000000     3.172000000
H     1.090000000    -7.405000000     3.848000000
O    -2.612000000     5.153000000    -0.401000000
H    -2.501000000     4.511000000    -1.102000000
H    -1.953000000     5.823000000    -0.583000000
O     3.692000000    -1.855000000     2.536000000
H     2.978000000    -2.465000000     2.347000000
H     3.264000000    -1.108000000     2.955000000
O     0.109000000    -0.318000000    -7.263000000
H    -0.025000000    -0.947000000    -6.555000000
H     1.040000000    -0.097000000    -7.215000000
O    -0.939000000    -4.746000000     3.375000000
H    -1.422000000    -3.980000000     3.687000000
H    -0.234000000    -4.382000000     2.840000000
O     1.279000000     6.028000000    -0.296000000
H     0.991000000     5.941000000     0.612000000
H     2.017000000     5.423000000    -0.372000000
O     0.865000000    -3.402000000    -3.635000000
H     1.413000000    -3.009000000    -2.955000000
H     1.047000000    -4.340000000    -3.576000000
O    -0.282000000     5.929000000     1.999000000
H    -1.126000000     5.990000000     1.551000000
H    -0.451000000     6.274000000     2.875000000
O     2.107000000     1.991000000     4.528000000
H     1.249000000     1.740000000     4.186000000
H     2.026000000     1.889000000     5.476000000
O    -3.676000000    -1.217000000    -5.691000000
H    -3.638000000    -0.266000000    -5.589000000
H    -2.782000000    -1.512000000    -5.516000000
O    -0.715000000    -1.531000000    -4.857000000
H    -0.324000000    -2.394000000    -4.725000000
H    -0.221000000    -0.952000000    -4.277000000
O     2.184000000     7.594000000    -2.264000000
H     3.114000000     7.628000000    -2.041000000
H     1.857000000     6.816000000    -1.811000000
O    -2.160000000    -4.239000000     0.087000000
H    -2.100000000    -5.031000000    -0.448000000
H    -1.252000000    -3.957000000     0.199000000
O    -1.816000000    -2.057000000     3.800000000
H    -0.907000000    -1.757000000     3.809000000
H    -2.160000000    -1.753000000     2.961000000
O     1.076000000    -5.909000000    -2.515000000
H     1.577000000    -5.681000000    -1.732000000
H     0.237000000    -6.224000000    -2.178000000
O    -2.352000000    -6.981000000     3.028000000
H    -1.778000000    -6.219000000     3.109000000
H    -3.207000000    -6.615000000     2.805000000
O     4.206000000     0.478000000     5.043000000
H     4.952000000     1.057000000     5.200000000
H     3.565000000     1.030000000     4.594000000
O    -0.654000000     2.104000000     3.658000000
H    -1.036000000     1.567000000     2.965000000
H    -1.380000000     2.644000000     3.971000000
O    -4.998000000     6.290000000    -1.276000000
H    -4.208000000     5.827000000    -0.997000000
H    -5.358000000     6.658000000    -0.469000000
O     3.026000000    -2.238000000    -1.974000000
H     3.374000000    -1.658000000    -1.296000000
H     3.330000000    -1.854000000    -2.796000000
O     3.796000000    -6.246000000     1.333000000
H     3.198000000    -5.809000000     0.726000000
H     3.509000000    -5.959000000     2.200000000
