144
-2810.24740
O     2.646000000     1.283000000    -4.312000000
H     2.982000000     1.733000000    -3.537000000
H     1.718000000     1.516000000    -4.340000000
O     4.090000000    -6.999000000    -1.052000000
H     3.987000000    -6.533000000    -0.222000000
H     3.873000000    -7.908000000    -0.845000000
O     2.787000000    -5.185000000    -2.869000000
H     2.631000000    -5.726000000    -3.643000000
H     2.888000000    -5.814000000    -2.154000000
O     1.736000000     3.730000000     1.823000000
H     2.605000000     3.349000000     1.695000000
H     1.214000000     3.017000000     2.192000000
O    -5.386000000    -0.807000000     1.416000000
H    -6.129000000    -1.356000000     1.165000000
H    -4.791000000    -1.402000000     1.872000000
O    -7.250000000     0.065000000     3.709000000
H    -7.065000000     1.002000000     3.784000000
H    -6.601000000    -0.258000000     3.084000000
O     8.380000000    -1.112000000    -1.814000000
H     7.863000000    -1.672000000    -2.393000000
H     7.828000000    -0.994000000    -1.041000000
O    -1.036000000    -2.258000000    -1.734000000
H    -0.127000000    -2.498000000    -1.917000000
H    -1.102000000    -2.280000000    -0.779000000
O     3.397000000    -4.659000000     0.440000000
H     3.492000000    -3.707000000     0.467000000
H     2.452000000    -4.806000000     0.459000000
O     5.438000000    -4.808000000     2.417000000
H     6.277000000    -4.567000000     2.022000000
H     4.831000000    -4.856000000     1.678000000
O     1.458000000    -2.990000000    -2.555000000
H     1.966000000    -2.462000000    -1.938000000
H     1.900000000    -3.839000000    -2.565000000
O    -3.813000000    -3.196000000     1.995000000
H    -4.074000000    -3.971000000     1.498000000
H    -2.893000000    -3.350000000     2.211000000
O     2.016000000    -5.598000000     4.290000000
H     2.075000000    -4.710000000     3.938000000
H     1.445000000    -6.061000000     3.677000000
O    -3.572000000     3.825000000     3.620000000
H    -4.346000000     3.378000000     3.277000000
H    -3.789000000     4.756000000     3.565000000
O    -2.905000000    -2.677000000     4.882000000
H    -2.474000000    -3.258000000     4.256000000
H    -2.214000000    -2.082000000     5.172000000
O    -0.002000000     4.938000000    -0.642000000
H     0.711000000     4.762000000    -0.028000000
H    -0.742000000     4.438000000    -0.299000000
O    -3.240000000    -0.855000000    -2.687000000
H    -2.686000000    -1.587000000    -2.418000000
H    -2.665000000    -0.298000000    -3.212000000
O     0.454000000    -1.660000000     4.058000000
H     1.382000000    -1.795000000     3.865000000
H    -0.003000000    -2.264000000     3.472000000
O     0.700000000    -5.077000000     0.774000000
H     0.818000000    -5.985000000     1.051000000
H     0.205000000    -5.138000000    -0.042000000
O    -6.022000000    -2.198000000    -2.233000000
H    -5.238000000    -1.759000000    -2.560000000
H    -5.774000000    -3.121000000    -2.178000000
O    -1.159000000     1.877000000     5.215000000
H    -1.153000000     1.046000000     5.690000000
H    -2.055000000     2.200000000     5.307000000
O     4.730000000    -3.181000000    -2.898000000
H     4.977000000    -3.277000000    -1.978000000
H     3.815000000    -3.460000000    -2.930000000
O     5.066000000     0.067000000    -2.500000000
H     5.569000000    -0.718000000    -2.283000000
H     4.465000000     0.177000000    -1.764000000
O     7.340000000     1.322000000    -3.222000000
H     6.430000000     1.051000000    -3.106000000
H     7.828000000     0.804000000    -2.581000000
O     6.907000000     1.718000000     1.847000000
H     5.968000000     1.742000000     1.664000000
H     6.998000000     2.170000000     2.686000000
O    -2.207000000     5.001000000    -3.882000000
H    -1.286000000     5.221000000    -3.739000000
H    -2.688000000     5.596000000    -3.307000000
O     1.456000000    -2.405000000     6.480000000
H     0.825000000    -3.122000000     6.549000000
H     1.231000000    -1.966000000     5.660000000
O     0.210000000     2.563000000    -4.789000000
H     0.165000000     2.912000000    -5.679000000
H     0.211000000     3.339000000    -4.228000000
O    -5.926000000     2.768000000     2.515000000
H    -6.668000000     3.223000000     2.913000000
H    -6.125000000     2.759000000     1.579000000
O    -0.771000000    -3.705000000     2.658000000
H    -0.356000000    -3.984000000     1.841000000
H    -1.209000000    -4.491000000     2.984000000
O    -6.268000000     1.237000000    -0.263000000
H    -5.989000000     0.711000000     0.487000000
H    -6.827000000     0.651000000    -0.773000000
O    -1.651000000     0.632000000    -4.192000000
H    -0.800000000     1.038000000    -4.354000000
H    -2.257000000     1.368000000    -4.108000000
O    -1.454000000     3.651000000     1.631000000
H    -0.926000000     2.855000000     1.569000000
H    -1.943000000     3.551000000     2.448000000
O     4.043000000    -0.002000000     3.855000000
H     3.539000000     0.291000000     4.614000000
H     4.915000000    -0.189000000     4.205000000
O     4.541000000    -0.553000000    -5.234000000
H     5.226000000    -0.587000000    -4.566000000
H     3.869000000     0.016000000    -4.858000000
O    -4.581000000     4.043000000    -4.751000000
H    -3.656000000     4.120000000    -4.519000000
H    -4.909000000     3.334000000    -4.197000000
O     3.992000000     1.759000000     1.745000000
H     3.975000000     1.173000000     0.988000000
H     3.668000000     1.223000000     2.469000000
O     0.329000000     1.499000000     2.878000000
H    -0.354000000     1.450000000     3.547000000
H     0.523000000     0.586000000     2.667000000
O    -7.445000000    -2.360000000     0.550000000
H    -6.946000000    -2.466000000    -0.260000000
H    -8.350000000    -2.548000000     0.301000000
O     6.401000000    -0.609000000     0.136000000
H     6.631000000    -0.086000000     0.904000000
H     5.443000000    -0.620000000     0.131000000
O     2.911000000    -2.271000000     2.785000000
H     3.041000000    -2.065000000     1.859000000
H     3.432000000    -1.617000000     3.251000000
O    -6.852000000     2.839000000    -2.256000000
H    -7.749000000     2.775000000    -2.584000000
H    -6.808000000     2.193000000    -1.551000000
O    -3.669000000     2.242000000     5.760000000
H    -3.946000000     2.888000000     5.111000000
H    -3.899000000     2.634000000     6.602000000
O     8.471000000    -1.498000000     1.920000000
H     9.316000000    -1.825000000     1.612000000
H     7.836000000    -1.856000000     1.301000000
O    -4.626000000     1.671000000    -3.454000000
H    -5.374000000     2.064000000    -3.005000000
H    -4.341000000     0.966000000    -2.872000000
O     4.044000000     5.563000000    -0.836000000
H     4.402000000     4.779000000    -0.419000000
H     4.648000000     6.263000000    -0.587000000
O    -0.840000000    -5.004000000    -1.398000000
H    -0.908000000    -4.129000000    -1.781000000
H    -0.309000000    -5.498000000    -2.021000000
O     3.258000000     3.121000000    -2.158000000
H     3.088000000     3.960000000    -1.730000000
H     4.192000000     3.145000000    -2.368000000
