144
-2812.67034
O     4.098000000    -5.637000000    -0.964000000
H     3.891000000    -5.197000000    -1.789000000
H     3.516000000    -5.231000000    -0.322000000
O    -1.340000000    -4.506000000    -1.056000000
H    -1.178000000    -5.060000000    -0.292000000
H    -1.898000000    -3.801000000    -0.726000000
O     4.506000000    -0.797000000    -4.502000000
H     5.352000000    -0.532000000    -4.863000000
H     4.115000000     0.018000000    -4.188000000
O    -4.838000000     4.196000000    -0.587000000
H    -5.070000000     3.288000000    -0.781000000
H    -4.241000000     4.446000000    -1.293000000
O    -0.382000000    -3.732000000    -3.305000000
H     0.490000000    -4.115000000    -3.399000000
H    -0.752000000    -4.163000000    -2.536000000
O     3.061000000    -3.069000000     2.804000000
H     3.387000000    -2.181000000     2.955000000
H     2.912000000    -3.421000000     3.682000000
O    -3.327000000     6.992000000    -4.012000000
H    -4.258000000     6.782000000    -4.082000000
H    -2.920000000     6.182000000    -3.706000000
O    -2.164000000     4.489000000     2.353000000
H    -2.739000000     3.733000000     2.232000000
H    -1.970000000     4.786000000     1.464000000
O    -4.022000000    -0.429000000     1.691000000
H    -3.798000000    -0.627000000     2.600000000
H    -3.399000000    -0.940000000     1.174000000
O     2.942000000     0.697000000     0.519000000
H     2.661000000     0.284000000     1.336000000
H     2.157000000     0.701000000    -0.029000000
O     2.561000000    -4.564000000     5.448000000
H     3.168000000    -4.739000000     6.167000000
H     2.149000000    -3.732000000     5.680000000
O     1.287000000     3.217000000    -7.144000000
H     1.443000000     2.401000000    -7.620000000
H     2.031000000     3.291000000    -6.547000000
O    -3.167000000    -2.679000000    -0.212000000
H    -3.822000000    -3.206000000    -0.670000000
H    -3.026000000    -1.923000000    -0.780000000
O     0.421000000    -5.762000000     4.311000000
H     1.191000000    -5.346000000     4.699000000
H    -0.265000000    -5.660000000     4.971000000
O    -5.315000000    -3.148000000     2.134000000
H    -5.113000000    -2.680000000     1.324000000
H    -5.516000000    -4.040000000     1.852000000
O     3.706000000     1.821000000    -3.460000000
H     2.785000000     2.019000000    -3.289000000
H     3.995000000     1.338000000    -2.686000000
O     2.098000000    -4.712000000    -3.394000000
H     2.738000000    -4.035000000    -3.176000000
H     2.524000000    -5.233000000    -4.075000000
O     0.239000000     0.575000000    -4.970000000
H     0.997000000     0.702000000    -5.541000000
H     0.438000000     1.091000000    -4.189000000
O     0.289000000    -2.197000000    -5.770000000
H     0.236000000    -1.335000000    -5.357000000
H     0.193000000    -2.816000000    -5.046000000
O     1.511000000     6.349000000     0.313000000
H     1.686000000     7.246000000     0.599000000
H     2.317000000     6.077000000    -0.127000000
O     4.048000000    -3.160000000    -2.494000000
H     4.474000000    -2.788000000    -3.267000000
H     4.078000000    -2.459000000    -1.843000000
O     2.394000000     2.376000000     3.906000000
H     2.174000000     2.806000000     4.732000000
H     2.892000000     3.032000000     3.419000000
O     1.759000000     5.041000000    -3.310000000
H     2.298000000     5.231000000    -2.542000000
H     1.284000000     4.243000000    -3.079000000
O    -0.961000000     5.113000000     0.018000000
H    -0.148000000     5.615000000     0.065000000
H    -0.836000000     4.524000000    -0.726000000
O    -2.674000000    -0.314000000     4.073000000
H    -2.623000000    -1.001000000     4.738000000
H    -2.106000000     0.381000000     4.405000000
O     5.010000000    -0.175000000    -1.530000000
H     5.948000000    -0.160000000    -1.339000000
H     4.619000000     0.379000000    -0.856000000
O     2.456000000     0.635000000    -6.822000000
H     2.600000000    -0.311000000    -6.832000000
H     3.279000000     1.007000000    -7.138000000
O     3.175000000     3.801000000    -5.393000000
H     2.945000000     4.380000000    -4.666000000
H     3.596000000     3.049000000    -4.977000000
O     0.318000000     5.293000000     3.085000000
H     0.958000000     5.336000000     2.374000000
H    -0.465000000     4.920000000     2.679000000
O    -0.322000000     7.476000000    -2.408000000
H     0.053000000     7.000000000    -1.667000000
H    -0.228000000     6.877000000    -3.149000000
O    -0.838000000     6.607000000    -5.764000000
H    -0.621000000     5.755000000    -5.385000000
H    -1.740000000     6.769000000    -5.487000000
O     3.801000000     5.458000000    -1.243000000
H     4.486000000     6.079000000    -1.491000000
H     4.263000000     4.767000000    -0.768000000
O    -2.718000000     4.538000000    -2.727000000
H    -3.097000000     3.664000000    -2.817000000
H    -1.776000000     4.384000000    -2.651000000
O    -2.535000000     7.433000000    -0.730000000
H    -2.184000000     6.544000000    -0.774000000
H    -2.493000000     7.752000000    -1.631000000
O    -0.612000000     3.548000000    -5.039000000
H    -0.180000000     3.248000000    -5.839000000
H    -0.138000000     3.111000000    -4.332000000
O     2.505000000    -0.352000000     3.258000000
H     1.956000000    -0.808000000     3.896000000
H     2.492000000     0.562000000     3.540000000
O    -2.039000000    -0.897000000    -4.327000000
H    -2.710000000    -0.639000000    -4.959000000
H    -1.289000000    -0.340000000    -4.533000000
O    -0.707000000    -6.339000000     0.979000000
H    -0.663000000    -5.898000000     1.827000000
H     0.087000000    -6.873000000     0.945000000
O     4.910000000     3.039000000     0.370000000
H     5.384000000     3.324000000     1.151000000
H     3.996000000     2.988000000     0.650000000
O    -4.502000000     1.187000000     5.456000000
H    -5.015000000     0.517000000     5.908000000
H    -3.933000000     0.695000000     4.865000000
O     1.949000000    -1.981000000     6.176000000
H     1.975000000    -1.173000000     6.687000000
H     1.018000000    -2.127000000     6.005000000
O     0.148000000     0.973000000     5.110000000
H     0.781000000     1.543000000     4.673000000
H     0.374000000     1.031000000     6.038000000
O     2.197000000    -4.619000000     0.753000000
H     1.821000000    -5.413000000     1.133000000
H     2.316000000    -4.030000000     1.498000000
O    -2.168000000    -0.533000000    -1.577000000
H    -1.799000000    -0.732000000    -2.438000000
H    -1.432000000    -0.634000000    -0.973000000
O    -4.830000000     0.076000000    -2.042000000
H    -3.887000000    -0.016000000    -1.902000000
H    -5.135000000    -0.816000000    -2.209000000
O    -4.004000000     2.400000000     2.222000000
H    -3.768000000     1.473000000     2.186000000
H    -4.896000000     2.406000000     2.569000000
O    -3.674000000    -6.702000000     0.454000000
H    -3.832000000    -7.316000000    -0.263000000
H    -2.742000000    -6.800000000     0.651000000
O     5.283000000    -3.618000000     1.266000000
H     5.561000000    -3.253000000     2.106000000
H     4.335000000    -3.716000000     1.349000000
