144
-2792.74041
O    -4.881000000     2.066000000    -4.538000000
H    -4.340000000     2.541000000    -5.169000000
H    -5.681000000     2.588000000    -4.468000000
O     1.033000000    -4.341000000     0.154000000
H     1.693000000    -4.515000000    -0.518000000
H     1.534000000    -4.029000000     0.907000000
O    -2.060000000    -4.858000000     1.818000000
H    -2.661000000    -5.233000000     1.174000000
H    -2.180000000    -3.912000000     1.734000000
O     1.095000000     1.707000000     4.596000000
H     2.052000000     1.740000000     4.617000000
H     0.838000000     2.511000000     4.146000000
O    -0.484000000    -3.964000000    -2.195000000
H    -0.276000000    -4.522000000    -1.446000000
H     0.185000000    -3.279000000    -2.176000000
O     3.220000000    -0.250000000    -1.278000000
H     3.149000000     0.254000000    -2.089000000
H     2.489000000     0.057000000    -0.742000000
O    -0.017000000    -6.963000000     1.144000000
H     0.715000000    -6.349000000     1.094000000
H    -0.724000000    -6.459000000     1.547000000
O    -2.833000000    -2.145000000     1.523000000
H    -2.040000000    -1.824000000     1.094000000
H    -2.836000000    -1.713000000     2.377000000
O    -2.033000000     3.647000000    -0.132000000
H    -1.775000000     2.763000000     0.131000000
H    -2.161000000     3.587000000    -1.079000000
O     3.922000000     0.523000000     2.099000000
H     4.472000000     0.592000000     2.880000000
H     3.053000000     0.306000000     2.437000000
O     2.506000000    -2.852000000     4.807000000
H     2.027000000    -2.819000000     5.635000000
H     3.131000000    -2.129000000     4.863000000
O    -1.852000000     2.307000000    -5.871000000
H    -1.448000000     1.845000000    -6.606000000
H    -1.766000000     1.703000000    -5.133000000
O    -3.384000000     1.269000000    -0.093000000
H    -3.743000000     0.735000000     0.616000000
H    -3.633000000     0.805000000    -0.892000000
O     1.699000000     3.210000000    -4.757000000
H     0.810000000     2.854000000    -4.769000000
H     1.814000000     3.595000000    -5.626000000
O     3.744000000     1.567000000     5.046000000
H     4.360000000     2.299000000     5.015000000
H     3.748000000     1.290000000     5.962000000
O     1.039000000    -2.660000000    -4.271000000
H     0.208000000    -2.374000000    -4.650000000
H     1.530000000    -3.017000000    -5.011000000
O     0.067000000    -0.261000000    -6.011000000
H    -0.730000000    -0.118000000    -6.522000000
H    -0.095000000     0.189000000    -5.182000000
O    -2.812000000    -2.769000000    -6.710000000
H    -2.724000000    -3.694000000    -6.478000000
H    -2.830000000    -2.312000000    -5.869000000
O     2.773000000    -0.694000000    -6.963000000
H     3.075000000     0.112000000    -6.544000000
H     1.820000000    -0.610000000    -6.985000000
O    -3.619000000     4.424000000    -5.931000000
H    -3.502000000     5.118000000    -6.580000000
H    -2.750000000     4.031000000    -5.842000000
O    -1.871000000    -5.646000000    -3.870000000
H    -1.545000000    -4.974000000    -3.271000000
H    -1.257000000    -5.631000000    -4.604000000
O     2.341000000     1.188000000     7.548000000
H     1.791000000     1.495000000     6.828000000
H     2.734000000     1.984000000     7.906000000
O     0.592000000     4.852000000    -2.007000000
H     1.299000000     4.944000000    -2.645000000
H     0.131000000     4.056000000    -2.273000000
O     3.201000000     4.919000000    -3.362000000
H     4.100000000     4.839000000    -3.681000000
H     2.669000000     4.495000000    -4.036000000
O     1.007000000     7.541000000    -1.390000000
H     0.870000000     6.601000000    -1.272000000
H     0.980000000     7.669000000    -2.338000000
O    -2.696000000    -0.587000000     4.013000000
H    -3.485000000    -0.172000000     4.363000000
H    -1.983000000    -0.004000000     4.273000000
O     3.450000000     1.258000000    -3.686000000
H     4.126000000     1.472000000    -4.329000000
H     2.824000000     1.980000000    -3.747000000
O     0.757000000     3.965000000     3.116000000
H     0.982000000     4.048000000     2.189000000
H     0.833000000     4.855000000     3.461000000
O     4.996000000    -1.773000000     1.118000000
H     5.432000000    -2.065000000     1.918000000
H     4.692000000    -0.888000000     1.320000000
O    -2.245000000     6.122000000     0.880000000
H    -2.260000000     5.187000000     0.676000000
H    -2.504000000     6.550000000     0.064000000
O    -3.080000000     6.946000000    -1.663000000
H    -2.714000000     7.690000000    -2.142000000
H    -2.806000000     6.179000000    -2.166000000
O    -5.188000000    -2.487000000    -4.103000000
H    -6.027000000    -2.107000000    -4.362000000
H    -4.533000000    -1.925000000    -4.517000000
O     2.969000000    -3.589000000     2.153000000
H     2.683000000    -3.528000000     3.064000000
H     3.558000000    -2.844000000     2.036000000
O    -3.271000000    -6.192000000    -0.230000000
H    -3.188000000    -6.741000000    -1.010000000
H    -3.719000000    -5.404000000    -0.538000000
O    -3.446000000    -0.281000000    -4.862000000
H    -3.610000000     0.656000000    -4.755000000
H    -2.692000000    -0.458000000    -4.299000000
O    -0.568000000    -4.441000000     4.578000000
H    -0.038000000    -5.160000000     4.236000000
H    -0.732000000    -3.882000000     3.819000000
O     2.703000000     4.444000000     5.270000000
H     2.678000000     5.244000000     4.745000000
H     1.926000000     3.956000000     5.000000000
O     1.850000000     4.589000000     0.729000000
H     2.752000000     4.270000000     0.759000000
H     1.620000000     4.569000000    -0.200000000
O    -2.665000000     4.214000000    -2.843000000
H    -1.945000000     3.589000000    -2.930000000
H    -3.425000000     3.755000000    -3.200000000
O    -1.916000000    -2.921000000     6.272000000
H    -1.471000000    -3.613000000     5.782000000
H    -1.536000000    -2.109000000     5.936000000
O     4.281000000     3.772000000     0.355000000
H     4.647000000     3.381000000    -0.437000000
H     4.827000000     3.433000000     1.065000000
O    -0.910000000    -0.106000000     6.042000000
H    -0.233000000     0.393000000     5.587000000
H    -1.116000000     0.419000000     6.816000000
O    -1.807000000     2.126000000     3.336000000
H    -1.210000000     2.547000000     2.717000000
H    -1.725000000     2.644000000     4.137000000
O     2.762000000    -2.921000000    -1.948000000
H     2.305000000    -2.704000000    -2.761000000
H     2.955000000    -2.073000000    -1.548000000
O    -4.629000000    -3.838000000    -1.301000000
H    -5.374000000    -3.237000000    -1.311000000
H    -4.186000000    -3.684000000    -2.135000000
O     4.149000000    -5.317000000     4.801000000
H     4.937000000    -5.223000000     5.337000000
H     3.685000000    -4.487000000     4.910000000
O    -5.477000000     0.129000000    -2.304000000
H    -6.050000000     0.883000000    -2.162000000
H    -5.040000000     0.313000000    -3.136000000
O    -4.857000000     3.641000000    -0.520000000
H    -4.456000000     2.832000000    -0.201000000
H    -4.145000000     4.101000000    -0.966000000
