144
-2819.98615
O     3.403000000    -0.966000000     1.420000000
H     2.621000000    -1.417000000     1.737000000
H     3.363000000    -0.100000000     1.827000000
O     5.286000000     2.839000000    -4.320000000
H     6.175000000     2.960000000    -3.987000000
H     4.723000000     2.996000000    -3.561000000
O    -1.507000000    -5.294000000     1.420000000
H    -0.599000000    -5.255000000     1.721000000
H    -1.928000000    -4.539000000     1.832000000
O     2.595000000     0.685000000     3.741000000
H     2.070000000    -0.102000000     3.590000000
H     2.039000000     1.243000000     4.284000000
O    -2.041000000    -3.751000000    -3.525000000
H    -2.240000000    -2.815000000    -3.500000000
H    -2.898000000    -4.178000000    -3.509000000
O     5.751000000     0.355000000    -5.556000000
H     5.483000000    -0.431000000    -5.080000000
H     5.549000000     1.076000000    -4.960000000
O     2.260000000     5.546000000    -3.068000000
H     2.900000000     6.203000000    -3.340000000
H     2.789000000     4.823000000    -2.729000000
O    -2.273000000    -0.673000000    -3.402000000
H    -1.729000000     0.093000000    -3.218000000
H    -3.054000000    -0.315000000    -3.826000000
O     2.353000000    -2.034000000    -6.740000000
H     2.107000000    -2.190000000    -7.652000000
H     1.528000000    -1.826000000    -6.302000000
O     0.189000000     1.529000000    -6.567000000
H     0.249000000     1.824000000    -7.476000000
H     0.999000000     1.840000000    -6.161000000
O    -1.505000000    -2.356000000     3.622000000
H    -1.781000000    -1.455000000     3.453000000
H    -2.304000000    -2.874000000     3.524000000
O    -0.805000000     1.660000000    -3.199000000
H    -1.107000000     2.211000000    -2.477000000
H     0.136000000     1.827000000    -3.250000000
O     4.704000000    -1.747000000    -4.115000000
H     3.835000000    -1.395000000    -3.921000000
H     4.557000000    -2.683000000    -4.255000000
O    -2.305000000     2.529000000    -0.629000000
H    -1.576000000     1.917000000    -0.534000000
H    -2.032000000     3.305000000    -0.140000000
O     3.027000000    -3.473000000     0.617000000
H     3.577000000    -2.691000000     0.670000000
H     3.184000000    -3.817000000    -0.262000000
O    -7.361000000     2.161000000     1.753000000
H    -7.524000000     1.256000000     2.017000000
H    -6.410000000     2.256000000     1.796000000
O     4.640000000     0.559000000    -0.559000000
H     5.544000000     0.313000000    -0.361000000
H     4.119000000    -0.188000000    -0.266000000
O    -0.822000000     4.267000000     1.342000000
H    -1.049000000     3.588000000     1.978000000
H     0.037000000     4.007000000     1.009000000
O    -5.011000000    -0.309000000     1.677000000
H    -4.834000000    -0.455000000     0.748000000
H    -4.151000000    -0.128000000     2.058000000
O    -4.360000000    -0.767000000     5.701000000
H    -3.824000000    -0.384000000     6.396000000
H    -4.108000000    -1.691000000     5.687000000
O    -4.473000000     4.318000000     3.499000000
H    -5.310000000     4.705000000     3.756000000
H    -4.303000000     3.651000000     4.163000000
O     2.645000000     5.897000000     4.293000000
H     3.596000000     5.815000000     4.361000000
H     2.322000000     4.998000000     4.362000000
O    -1.829000000     3.331000000    -5.076000000
H    -1.436000000     2.532000000    -4.725000000
H    -1.413000000     4.039000000    -4.585000000
O     1.025000000    -5.182000000     2.177000000
H     1.556000000    -5.107000000     2.969000000
H     1.414000000    -4.555000000     1.567000000
O    -3.848000000    -3.637000000     3.306000000
H    -4.576000000    -3.016000000     3.323000000
H    -4.267000000    -4.496000000     3.253000000
O    -1.562000000     2.931000000     5.274000000
H    -1.646000000     2.605000000     4.378000000
H    -2.419000000     2.771000000     5.669000000
O     1.790000000     2.510000000    -3.773000000
H     2.398000000     2.389000000    -4.502000000
H     2.299000000     2.976000000    -3.110000000
O    -1.894000000     5.659000000     5.555000000
H    -1.813000000     4.713000000     5.432000000
H    -1.673000000     6.031000000     4.701000000
O     1.049000000    -1.471000000     3.374000000
H     0.181000000    -1.733000000     3.067000000
H     1.064000000    -1.725000000     4.297000000
O    -4.098000000    -0.846000000    -0.734000000
H    -4.864000000    -0.897000000    -1.306000000
H    -3.353000000    -0.812000000    -1.335000000
O    -2.050000000     6.321000000     0.009000000
H    -1.305000000     6.908000000     0.140000000
H    -1.797000000     5.511000000     0.451000000
O     1.914000000     4.061000000     0.752000000
H     2.687000000     3.614000000     1.096000000
H     1.930000000     4.922000000     1.170000000
O     4.011000000     3.203000000    -1.917000000
H     4.726000000     3.734000000    -1.565000000
H     3.759000000     2.631000000    -1.192000000
O     1.036000000     2.184000000     5.155000000
H     1.209000000     2.136000000     6.095000000
H     0.088000000     2.299000000     5.092000000
O    -5.409000000    -3.763000000    -0.596000000
H    -5.585000000    -3.526000000     0.315000000
H    -5.071000000    -2.960000000    -0.992000000
O    -4.634000000     2.840000000     1.363000000
H    -3.803000000     2.451000000     1.090000000
H    -4.407000000     3.387000000     2.115000000
O    -0.760000000    -5.388000000    -1.558000000
H     0.049000000    -5.142000000    -2.008000000
H    -0.555000000    -5.288000000    -0.628000000
O    -0.726000000    -4.980000000    -5.603000000
H    -0.774000000    -4.311000000    -4.920000000
H     0.164000000    -4.907000000    -5.948000000
O     3.250000000     1.699000000    -5.946000000
H     4.206000000     1.690000000    -5.902000000
H     3.022000000     0.865000000    -6.356000000
O    -4.105000000     1.847000000     4.764000000
H    -4.658000000     1.111000000     5.028000000
H    -3.565000000     1.497000000     4.054000000
O     6.180000000    -2.689000000    -0.821000000
H     6.557000000    -2.040000000    -1.415000000
H     6.143000000    -2.246000000     0.027000000
O     3.973000000    -4.434000000    -1.988000000
H     4.638000000    -3.819000000    -1.680000000
H     4.466000000    -5.217000000    -2.232000000
O    -0.877000000     6.827000000     3.203000000
H    -0.647000000     6.372000000     2.394000000
H    -1.290000000     7.640000000     2.912000000
O    -3.949000000    -5.891000000    -1.508000000
H    -4.532000000    -5.294000000    -1.040000000
H    -3.073000000    -5.669000000    -1.193000000
O     3.911000000     2.803000000     2.100000000
H     3.173000000     2.470000000     2.611000000
H     4.663000000     2.725000000     2.687000000
O     1.483000000    -5.058000000    -2.982000000
H     1.669000000    -5.896000000    -3.405000000
H     2.342000000    -4.729000000    -2.717000000
O    -5.979000000    -1.701000000     3.691000000
H    -5.770000000    -1.170000000     4.459000000
H    -5.648000000    -1.193000000     2.951000000
O    -0.711000000    -1.569000000    -6.342000000
H    -1.276000000    -0.796000000    -6.345000000
H    -1.293000000    -2.289000000    -6.098000000
