144
-2849.27382
O     5.545000000    -5.516000000    -3.401000000
H     4.831000000    -4.884000000    -3.318000000
H     5.133000000    -6.366000000    -3.243000000
O    -2.020000000    -4.944000000     3.383000000
H    -2.736000000    -5.504000000     3.082000000
H    -2.402000000    -4.067000000     3.421000000
O     0.682000000     0.387000000     5.700000000
H    -0.199000000     0.023000000     5.616000000
H     1.022000000     0.007000000     6.510000000
O     3.231000000    -1.693000000     3.482000000
H     2.526000000    -1.984000000     4.061000000
H     3.884000000    -2.391000000     3.531000000
O     1.342000000    -2.442000000     5.223000000
H     1.958000000    -2.972000000     5.729000000
H     0.614000000    -2.282000000     5.824000000
O    -0.604000000    -3.939000000    -1.725000000
H     0.330000000    -3.814000000    -1.895000000
H    -0.753000000    -3.508000000    -0.883000000
O    -4.319000000     0.369000000     5.680000000
H    -4.659000000     0.321000000     4.787000000
H    -3.540000000    -0.188000000     5.669000000
O    -2.902000000     6.730000000     3.177000000
H    -3.686000000     6.217000000     3.372000000
H    -2.193000000     6.088000000     3.160000000
O     0.227000000     5.827000000     1.041000000
H     0.920000000     5.263000000     0.698000000
H    -0.068000000     5.386000000     1.837000000
O    -2.639000000     1.480000000    -5.544000000
H    -2.828000000     2.037000000    -4.788000000
H    -1.712000000     1.259000000    -5.452000000
O    -0.012000000     0.853000000    -5.330000000
H     0.519000000     0.201000000    -5.787000000
H     0.592000000     1.576000000    -5.158000000
O    -2.009000000    -0.925000000     4.642000000
H    -2.426000000    -1.784000000     4.709000000
H    -2.306000000    -0.579000000     3.800000000
O     1.188000000    -3.860000000    -5.837000000
H     0.354000000    -3.951000000    -5.377000000
H     1.155000000    -4.523000000    -6.527000000
O     0.158000000     4.335000000    -2.991000000
H    -0.549000000     3.720000000    -3.186000000
H     0.541000000     4.009000000    -2.177000000
O     6.713000000    -1.267000000    -1.885000000
H     6.188000000    -0.469000000    -1.835000000
H     7.604000000    -0.958000000    -2.051000000
O    -2.538000000     3.170000000    -3.031000000
H    -2.437000000     3.456000000    -2.123000000
H    -3.094000000     3.838000000    -3.432000000
O     2.318000000    -5.802000000     1.392000000
H     1.764000000    -6.582000000     1.433000000
H     1.728000000    -5.078000000     1.601000000
O    -7.295000000    -0.206000000     4.338000000
H    -6.399000000    -0.362000000     4.041000000
H    -7.714000000     0.249000000     3.608000000
O     5.447000000     0.821000000    -0.647000000
H     6.130000000     0.859000000     0.023000000
H     4.886000000     0.095000000    -0.375000000
O     4.637000000    -2.726000000    -2.998000000
H     5.427000000    -2.221000000    -2.805000000
H     4.424000000    -2.500000000    -3.904000000
O    -2.110000000     4.385000000    -0.519000000
H    -2.088000000     3.780000000     0.222000000
H    -1.356000000     4.959000000    -0.383000000
O    -5.099000000    -0.368000000     2.853000000
H    -5.282000000    -0.559000000     1.933000000
H    -4.277000000     0.123000000     2.836000000
O     1.982000000     3.933000000    -0.528000000
H     2.059000000     3.215000000     0.101000000
H     2.757000000     3.850000000    -1.083000000
O    -4.780000000     5.215000000     4.481000000
H    -5.711000000     5.048000000     4.633000000
H    -4.377000000     4.347000000     4.487000000
O    -1.094000000    -0.848000000    -3.432000000
H    -0.767000000    -0.468000000    -4.248000000
H    -0.325000000    -0.893000000    -2.864000000
O     0.505000000    -4.114000000     2.548000000
H     0.713000000    -3.708000000     3.389000000
H    -0.308000000    -4.594000000     2.709000000
O    -1.427000000     4.571000000     2.761000000
H    -1.886000000     3.861000000     2.311000000
H    -1.139000000     4.184000000     3.587000000
O     3.799000000     2.378000000    -2.595000000
H     4.004000000     1.718000000    -3.258000000
H     4.088000000     1.987000000    -1.771000000
O    -3.965000000    -2.352000000     0.369000000
H    -3.862000000    -1.527000000    -0.106000000
H    -4.670000000    -2.807000000    -0.092000000
O    -0.498000000     3.161000000     4.807000000
H    -0.599000000     2.235000000     5.024000000
H    -0.046000000     3.536000000     5.562000000
O     2.223000000     2.462000000    -6.354000000
H     2.602000000     1.659000000    -5.996000000
H     2.730000000     3.166000000    -5.951000000
O     2.389000000     0.894000000     3.603000000
H     1.764000000     0.778000000     4.319000000
H     2.830000000     0.048000000     3.530000000
O    -2.944000000     0.511000000    -2.237000000
H    -2.876000000     1.397000000    -2.593000000
H    -2.190000000     0.048000000    -2.602000000
O    -4.189000000     5.768000000    -1.792000000
H    -4.623000000     6.076000000    -0.996000000
H    -3.445000000     5.257000000    -1.476000000
O     1.896000000     3.042000000     2.200000000
H     2.002000000     2.127000000     2.458000000
H     1.446000000     3.450000000     2.939000000
O     3.328000000    -2.589000000    -5.284000000
H     3.942000000    -2.982000000    -5.905000000
H     2.499000000    -3.038000000    -5.450000000
O     4.129000000    -4.766000000     3.373000000
H     3.215000000    -4.975000000     3.181000000
H     4.094000000    -4.258000000     4.184000000
O    -4.992000000     3.323000000     1.051000000
H    -4.051000000     3.243000000     1.205000000
H    -5.395000000     2.882000000     1.799000000
O    -1.040000000    -3.571000000    -4.465000000
H    -1.026000000    -2.659000000    -4.175000000
H    -1.162000000    -4.075000000    -3.661000000
O     3.337000000     0.177000000    -5.261000000
H     3.215000000    -0.771000000    -5.316000000
H     4.207000000     0.329000000    -5.631000000
O    -3.473000000     2.854000000     4.740000000
H    -3.499000000     2.012000000     5.195000000
H    -2.881000000     2.709000000     4.003000000
O     4.976000000    -3.817000000     0.277000000
H     4.422000000    -4.593000000     0.187000000
H     5.851000000    -4.118000000     0.035000000
O    -5.394000000     6.104000000     0.706000000
H    -5.351000000     6.515000000     1.569000000
H    -5.551000000     5.177000000     0.889000000
O    -6.161000000     2.487000000    -1.308000000
H    -5.532000000     2.819000000    -0.667000000
H    -6.936000000     3.036000000    -1.189000000
O     4.676000000    -1.221000000     0.880000000
H     4.697000000    -2.124000000     0.563000000
H     3.918000000    -1.191000000     1.464000000
O     2.168000000    -4.038000000    -2.913000000
H     2.317000000    -4.445000000    -3.767000000
H     2.979000000    -3.564000000    -2.729000000
O    -3.744000000    -2.991000000     3.311000000
H    -4.669000000    -3.127000000     3.518000000
H    -3.746000000    -2.301000000     2.649000000
O    -5.142000000     0.058000000    -0.523000000
H    -4.377000000     0.367000000    -1.007000000
H    -5.764000000     0.784000000    -0.567000000
