144
-2804.72834
O    -1.738000000     6.770000000     5.853000000
H    -1.379000000     6.039000000     5.349000000
H    -1.800000000     6.437000000     6.748000000
O    -0.420000000    -0.025000000     6.270000000
H    -1.128000000     0.269000000     5.697000000
H    -0.668000000    -0.916000000     6.518000000
O     4.332000000    -0.502000000    -3.503000000
H     4.994000000    -0.092000000    -4.060000000
H     4.281000000     0.066000000    -2.734000000
O    -2.136000000    -2.350000000     1.600000000
H    -2.339000000    -1.612000000     1.025000000
H    -2.530000000    -2.114000000     2.440000000
O     3.660000000     1.918000000     2.594000000
H     2.881000000     2.153000000     3.099000000
H     3.375000000     1.192000000     2.039000000
O    -4.233000000     0.117000000    -3.043000000
H    -4.342000000     0.982000000    -2.647000000
H    -4.317000000    -0.494000000    -2.310000000
O     0.113000000    -4.048000000     1.215000000
H    -0.527000000    -3.351000000     1.358000000
H    -0.379000000    -4.737000000     0.768000000
O    -2.694000000     0.966000000     4.654000000
H    -3.039000000     1.580000000     5.302000000
H    -2.412000000     1.520000000     3.926000000
O    -3.585000000     6.768000000     3.086000000
H    -3.600000000     5.907000000     2.668000000
H    -3.797000000     6.594000000     4.003000000
O    -1.078000000     0.285000000    -6.043000000
H    -0.703000000     0.784000000    -6.769000000
H    -0.373000000    -0.299000000    -5.764000000
O    -5.407000000     5.167000000    -1.317000000
H    -5.080000000     5.795000000    -0.673000000
H    -4.690000000     4.544000000    -1.430000000
O    -1.106000000    -6.099000000    -4.513000000
H    -2.031000000    -6.083000000    -4.762000000
H    -0.956000000    -5.251000000    -4.095000000
O     0.099000000    -3.332000000     4.088000000
H     0.852000000    -3.861000000     4.351000000
H     0.477000000    -2.607000000     3.591000000
O    -2.444000000    -3.696000000    -3.771000000
H    -3.310000000    -3.868000000    -4.139000000
H    -1.995000000    -3.184000000    -4.444000000
O     7.669000000     0.107000000    -3.031000000
H     8.241000000     0.298000000    -2.287000000
H     6.788000000     0.300000000    -2.710000000
O     1.565000000    -5.637000000    -6.365000000
H     1.163000000    -5.544000000    -5.501000000
H     1.863000000    -6.546000000    -6.394000000
O    -3.910000000     3.864000000    -3.944000000
H    -4.151000000     3.456000000    -3.112000000
H    -3.077000000     4.301000000    -3.764000000
O     5.163000000     0.192000000     0.588000000
H     5.913000000     0.658000000     0.958000000
H     4.887000000     0.732000000    -0.152000000
O     4.367000000    -3.177000000    -2.905000000
H     5.244000000    -2.883000000    -2.659000000
H     3.986000000    -2.431000000    -3.369000000
O    -3.202000000     3.538000000    -1.385000000
H    -3.067000000     3.107000000    -0.542000000
H    -2.429000000     4.091000000    -1.498000000
O    -3.621000000    -1.382000000     3.810000000
H    -3.551000000    -1.846000000     4.645000000
H    -3.287000000    -0.504000000     3.996000000
O     3.992000000     1.449000000     6.149000000
H     3.421000000     1.186000000     5.428000000
H     3.493000000     2.117000000     6.619000000
O    -1.178000000     5.556000000    -1.310000000
H    -1.512000000     6.036000000    -2.068000000
H    -0.697000000     6.210000000    -0.804000000
O     0.264000000     6.207000000     2.667000000
H     0.893000000     5.562000000     2.344000000
H     0.805000000     6.906000000     3.035000000
O    -3.266000000    -1.248000000    -5.258000000
H    -2.499000000    -0.775000000    -5.582000000
H    -3.541000000    -0.757000000    -4.484000000
O    -4.101000000     3.958000000     2.682000000
H    -3.536000000     3.339000000     2.219000000
H    -3.801000000     3.924000000     3.590000000
O     1.366000000     3.344000000     3.122000000
H     1.120000000     3.656000000     3.992000000
H     0.557000000     2.985000000     2.757000000
O     2.460000000     2.211000000    -3.856000000
H     2.039000000     1.460000000    -4.273000000
H     1.864000000     2.458000000    -3.149000000
O     1.632000000     0.664000000     4.596000000
H     1.112000000     0.539000000     5.390000000
H     2.083000000    -0.170000000     4.471000000
O     2.529000000     4.506000000    -1.728000000
H     1.858000000     3.837000000    -1.596000000
H     3.172000000     4.340000000    -1.039000000
O    -3.869000000    -1.016000000    -0.541000000
H    -4.449000000    -0.542000000     0.056000000
H    -4.140000000    -1.931000000    -0.461000000
O     4.225000000     3.720000000     0.440000000
H     3.790000000     3.035000000     0.949000000
H     4.974000000     3.979000000     0.978000000
O     4.477000000     1.643000000    -1.777000000
H     3.823000000     2.148000000    -2.260000000
H     5.129000000     2.291000000    -1.507000000
O     0.671000000     2.712000000    -1.280000000
H     0.076000000     3.323000000    -0.846000000
H     0.248000000     1.858000000    -1.186000000
O    -0.379000000     4.233000000     7.210000000
H    -0.501000000     3.467000000     7.771000000
H    -0.938000000     4.065000000     6.451000000
O    -5.292000000     1.413000000     1.174000000
H    -4.418000000     1.695000000     0.906000000
H    -5.483000000     1.933000000     1.954000000
O    -3.898000000    -4.005000000    -0.660000000
H    -3.275000000    -3.720000000    -1.329000000
H    -3.404000000    -3.970000000     0.158000000
O     1.410000000    -0.795000000    -4.979000000
H     1.886000000    -1.042000000    -5.772000000
H     2.080000000    -0.766000000    -4.296000000
O    -1.083000000     4.497000000     4.368000000
H    -1.576000000     3.887000000     3.821000000
H    -0.459000000     4.907000000     3.769000000
O     2.820000000    -4.649000000     2.253000000
H     2.736000000    -5.423000000     1.696000000
H     2.109000000    -4.073000000     1.972000000
O    -6.481000000     2.613000000    -1.472000000
H    -6.358000000     3.562000000    -1.488000000
H    -6.252000000     2.357000000    -0.579000000
O     2.186000000    -2.473000000    -7.058000000
H     2.705000000    -3.098000000    -7.565000000
H     1.995000000    -2.929000000    -6.239000000
O    -1.138000000    -6.062000000    -0.208000000
H    -1.778000000    -6.548000000     0.313000000
H    -0.583000000    -6.738000000    -0.597000000
O     2.681000000    -2.009000000     4.273000000
H     2.953000000    -2.629000000     3.597000000
H     3.497000000    -1.746000000     4.699000000
O     4.042000000    -4.687000000    -0.677000000
H     3.843000000    -4.243000000    -1.502000000
H     4.440000000    -4.009000000    -0.131000000
O     1.933000000    -5.987000000    -2.396000000
H     2.668000000    -5.458000000    -2.087000000
H     1.398000000    -6.134000000    -1.616000000
O    -5.809000000    -1.283000000     2.052000000
H    -5.126000000    -1.496000000     2.687000000
H    -6.212000000    -0.485000000     2.394000000
O     5.986000000    -2.437000000    -0.378000000
H     5.683000000    -1.551000000    -0.180000000
H     6.509000000    -2.687000000     0.383000000
