144
-2804.92721
O     5.426000000    -2.625000000     0.024000000
H     6.233000000    -2.326000000    -0.396000000
H     4.995000000    -3.162000000    -0.641000000
O    -5.579000000    -1.702000000     3.169000000
H    -4.622000000    -1.713000000     3.189000000
H    -5.837000000    -1.708000000     4.091000000
O    -1.833000000     3.164000000     5.058000000
H    -2.457000000     3.008000000     5.767000000
H    -2.135000000     2.602000000     4.345000000
O     2.725000000    -3.717000000     4.225000000
H     3.617000000    -3.420000000     4.049000000
H     2.463000000    -4.176000000     3.427000000
O     1.925000000     2.882000000    -3.622000000
H     2.138000000     2.918000000    -2.689000000
H     2.522000000     3.510000000    -4.028000000
O    -1.324000000    -2.017000000    -2.671000000
H    -2.053000000    -1.510000000    -2.314000000
H    -0.544000000    -1.516000000    -2.433000000
O     1.474000000     1.494000000     2.418000000
H     0.662000000     0.991000000     2.478000000
H     1.234000000     2.279000000     1.925000000
O    -3.351000000    -0.739000000    -1.485000000
H    -3.463000000    -0.010000000    -0.874000000
H    -4.198000000    -0.815000000    -1.924000000
O    -3.771000000    -3.475000000     1.470000000
H    -4.123000000    -3.004000000     0.714000000
H    -3.163000000    -4.111000000     1.094000000
O    -2.749000000     0.294000000     6.941000000
H    -2.799000000    -0.120000000     6.079000000
H    -3.574000000     0.771000000     7.026000000
O    -3.043000000     1.391000000     3.337000000
H    -3.886000000     1.631000000     3.721000000
H    -3.238000000     1.228000000     2.414000000
O    -1.542000000     7.097000000     0.641000000
H    -1.740000000     7.825000000     1.231000000
H    -2.356000000     6.595000000     0.598000000
O    -0.116000000     2.119000000    -5.109000000
H     0.566000000     2.386000000    -4.493000000
H    -0.583000000     2.929000000    -5.316000000
O    -2.503000000    -3.774000000     3.671000000
H    -2.952000000    -3.601000000     2.844000000
H    -2.469000000    -2.923000000     4.108000000
O     0.300000000    -1.243000000    -4.880000000
H    -0.144000000    -2.046000000    -5.153000000
H    -0.405000000    -0.606000000    -4.769000000
O     2.191000000     5.821000000    -1.587000000
H     1.325000000     5.479000000    -1.364000000
H     2.684000000     5.777000000    -0.768000000
O     3.736000000    -2.496000000    -6.099000000
H     3.818000000    -2.370000000    -5.153000000
H     3.402000000    -1.660000000    -6.423000000
O     4.718000000    -5.912000000    -1.398000000
H     4.229000000    -5.464000000    -2.088000000
H     4.144000000    -6.626000000    -1.122000000
O    -5.836000000     2.249000000     3.085000000
H    -6.726000000     1.922000000     3.217000000
H    -5.755000000     2.978000000     3.700000000
O     3.495000000    -0.121000000     2.739000000
H     3.165000000    -0.686000000     2.040000000
H     2.862000000     0.595000000     2.787000000
O     6.797000000     1.342000000     0.490000000
H     7.346000000     0.661000000     0.879000000
H     6.297000000     0.887000000    -0.188000000
O     3.597000000     1.137000000    -4.738000000
H     2.866000000     1.555000000    -4.283000000
H     4.370000000     1.617000000    -4.442000000
O    -3.450000000     3.572000000    -2.690000000
H    -3.159000000     3.425000000    -1.790000000
H    -2.852000000     4.239000000    -3.029000000
O    -2.224000000    -1.076000000     4.756000000
H    -2.565000000    -0.529000000     4.048000000
H    -1.276000000    -0.945000000     4.724000000
O    -2.448000000     6.325000000    -3.050000000
H    -2.595000000     6.824000000    -3.854000000
H    -3.256000000     6.434000000    -2.550000000
O     0.261000000    -5.139000000     3.706000000
H     0.271000000    -4.938000000     4.642000000
H    -0.504000000    -4.671000000     3.370000000
O    -2.268000000     0.418000000    -4.818000000
H    -1.632000000     1.125000000    -4.927000000
H    -2.953000000     0.795000000    -4.266000000
O     0.639000000    -5.461000000    -1.076000000
H     1.321000000    -5.720000000    -1.697000000
H     0.717000000    -6.091000000    -0.359000000
O    -3.198000000     4.448000000     1.604000000
H    -3.076000000     3.854000000     0.863000000
H    -4.037000000     4.188000000     1.984000000
O    -0.484000000     4.935000000    -4.722000000
H     0.262000000     5.534000000    -4.746000000
H    -1.053000000     5.287000000    -4.038000000
O     4.137000000    -1.417000000    -3.444000000
H     3.730000000    -0.632000000    -3.810000000
H     4.891000000    -1.090000000    -2.953000000
O     0.245000000     0.139000000     4.843000000
H     0.930000000    -0.306000000     5.341000000
H     0.101000000     0.960000000     5.314000000
O     0.952000000     4.125000000     1.401000000
H     0.452000000     4.229000000     0.592000000
H     1.610000000     4.819000000     1.366000000
O     4.775000000     3.330000000     0.449000000
H     5.458000000     3.915000000     0.122000000
H     5.155000000     2.933000000     1.233000000
O    -6.490000000    -1.513000000    -2.415000000
H    -6.190000000    -2.415000000    -2.524000000
H    -6.167000000    -1.256000000    -1.551000000
O    -4.414000000     5.906000000    -0.734000000
H    -4.254000000     4.972000000    -0.870000000
H    -5.339000000     6.025000000    -0.948000000
O     6.725000000    -0.784000000    -2.614000000
H     7.593000000    -0.950000000    -2.246000000
H     6.847000000    -0.021000000    -3.179000000
O     2.388000000     3.173000000    -0.925000000
H     3.201000000     3.117000000    -0.422000000
H     1.734000000     2.747000000    -0.372000000
O    -0.667000000     4.809000000    -0.646000000
H    -1.082000000     5.497000000    -0.127000000
H    -1.289000000     4.082000000    -0.622000000
O     5.537000000    -4.673000000     1.617000000
H     4.988000000    -5.327000000     1.185000000
H     5.592000000    -3.953000000     0.988000000
O    -8.633000000     1.313000000    -0.983000000
H    -9.184000000     1.539000000    -0.234000000
H    -7.826000000     0.977000000    -0.593000000
O    -1.543000000     6.076000000     3.647000000
H    -2.040000000     5.786000000     2.882000000
H    -0.886000000     5.392000000     3.780000000
O    -1.435000000    -3.703000000     0.156000000
H    -0.692000000    -4.218000000    -0.159000000
H    -1.406000000    -2.899000000    -0.362000000
O    -5.596000000     3.293000000     0.343000000
H    -5.018000000     2.609000000     0.004000000
H    -5.799000000     3.013000000     1.236000000
O     3.020000000    -0.967000000     5.386000000
H     3.376000000    -0.523000000     4.616000000
H     2.608000000    -1.757000000     5.038000000
O     3.299000000    -4.423000000    -3.410000000
H     2.916000000    -3.574000000    -3.185000000
H     2.597000000    -4.889000000    -3.864000000
O    -5.864000000    -0.284000000     0.296000000
H    -5.805000000    -0.854000000     1.062000000
H    -5.206000000     0.394000000     0.451000000
O     5.052000000    -2.638000000     3.214000000
H     5.348000000    -2.030000000     2.537000000
H     5.386000000    -3.490000000     2.933000000
