144
-2810.63248
O    -4.432000000    -3.197000000     1.254000000
H    -4.843000000    -3.528000000     2.052000000
H    -4.898000000    -2.382000000     1.065000000
O    -2.742000000     2.848000000     2.544000000
H    -1.923000000     2.511000000     2.909000000
H    -3.166000000     3.292000000     3.278000000
O     2.913000000    -4.874000000    -3.111000000
H     3.366000000    -4.052000000    -2.922000000
H     3.616000000    -5.514000000    -3.221000000
O     2.923000000     3.336000000    -2.823000000
H     3.308000000     2.700000000    -2.220000000
H     2.091000000     2.942000000    -3.088000000
O    -1.192000000    -3.948000000     2.263000000
H    -0.584000000    -4.482000000     1.752000000
H    -1.015000000    -4.188000000     3.173000000
O     2.412000000     0.759000000    -5.944000000
H     3.119000000     1.349000000    -6.205000000
H     1.784000000     1.323000000    -5.492000000
O    -2.141000000    -2.036000000    -0.228000000
H    -2.761000000    -2.528000000     0.310000000
H    -1.672000000    -1.481000000     0.395000000
O    -5.656000000     3.376000000    -2.923000000
H    -6.224000000     4.074000000    -2.596000000
H    -4.953000000     3.317000000    -2.276000000
O     0.995000000     5.563000000    -2.209000000
H     0.127000000     5.271000000    -2.488000000
H     1.544000000     4.782000000    -2.278000000
O    -2.184000000     2.013000000     6.411000000
H    -1.347000000     1.621000000     6.161000000
H    -2.755000000     1.265000000     6.589000000
O     5.275000000    -2.868000000    -2.294000000
H     6.014000000    -3.312000000    -1.879000000
H     5.248000000    -2.006000000    -1.878000000
O    -0.135000000     2.277000000     3.629000000
H    -0.040000000     1.692000000     4.381000000
H     0.323000000     3.076000000     3.888000000
O     6.425000000    -4.939000000     0.126000000
H     5.513000000    -4.862000000     0.406000000
H     6.917000000    -4.427000000     0.768000000
O    -0.668000000    -3.907000000    -1.282000000
H    -1.033000000    -3.136000000    -0.848000000
H    -1.165000000    -4.642000000    -0.921000000
O     3.695000000     3.784000000     0.423000000
H     3.598000000     4.332000000     1.202000000
H     3.192000000     2.995000000     0.621000000
O    -0.139000000    -4.395000000     4.718000000
H    -0.016000000    -4.351000000     5.666000000
H     0.736000000    -4.259000000     4.356000000
O    -4.935000000     0.766000000    -1.524000000
H    -4.096000000     1.207000000    -1.656000000
H    -4.949000000     0.075000000    -2.186000000
O     0.587000000     1.158000000     5.862000000
H     1.350000000     1.334000000     5.310000000
H     0.935000000     0.656000000     6.599000000
O    -3.575000000     2.815000000    -4.654000000
H    -4.172000000     3.099000000    -3.962000000
H    -3.031000000     2.144000000    -4.242000000
O     4.603000000     0.969000000     1.067000000
H     4.980000000     0.482000000     1.799000000
H     3.700000000     0.654000000     1.010000000
O    -1.486000000     2.843000000    -7.762000000
H    -1.269000000     2.791000000    -8.693000000
H    -0.663000000     2.645000000    -7.314000000
O     3.124000000     1.364000000     4.489000000
H     3.852000000     0.879000000     4.101000000
H     3.250000000     2.265000000     4.191000000
O    -2.469000000    -0.007000000    -5.093000000
H    -2.897000000    -0.617000000    -4.491000000
H    -1.940000000     0.556000000    -4.527000000
O     1.380000000    -1.867000000    -6.367000000
H     1.611000000    -0.992000000    -6.056000000
H     0.903000000    -2.262000000    -5.637000000
O    -3.635000000    -1.803000000     5.340000000
H    -3.106000000    -2.159000000     4.626000000
H    -4.365000000    -2.416000000     5.426000000
O    -3.124000000     0.345000000    -7.645000000
H    -2.559000000     0.045000000    -6.933000000
H    -2.801000000     1.221000000    -7.855000000
O    -1.793000000     6.055000000    -0.262000000
H    -2.555000000     5.485000000    -0.152000000
H    -1.287000000     5.645000000    -0.964000000
O     3.157000000    -0.424000000     6.887000000
H     3.167000000    -0.035000000     6.012000000
H     3.231000000     0.323000000     7.481000000
O    -4.077000000     3.876000000     0.145000000
H    -3.539000000     3.564000000    -0.583000000
H    -3.580000000     3.639000000     0.928000000
O    -3.129000000     4.811000000    -6.664000000
H    -2.507000000     4.182000000    -7.030000000
H    -3.313000000     4.481000000    -5.784000000
O     2.243000000    -3.968000000     3.749000000
H     2.866000000    -3.243000000     3.697000000
H     2.569000000    -4.609000000     3.118000000
O     5.017000000    -0.452000000     3.466000000
H     5.816000000    -0.453000000     3.994000000
H     4.842000000    -1.377000000     3.295000000
O    -5.844000000    -0.970000000     0.537000000
H    -5.825000000    -0.450000000     1.340000000
H    -5.652000000    -0.343000000    -0.160000000
O     0.677000000    -6.168000000     1.807000000
H     1.205000000    -5.668000000     1.184000000
H     0.488000000    -6.990000000     1.355000000
O     1.641000000    -5.339000000    -0.695000000
H     2.205000000    -5.356000000    -1.468000000
H     0.846000000    -4.893000000    -0.988000000
O    -5.297000000     1.477000000     1.868000000
H    -4.643000000     2.086000000     2.211000000
H    -5.516000000     1.824000000     1.003000000
O     0.795000000     2.710000000    -4.279000000
H     0.060000000     2.165000000    -3.996000000
H     0.407000000     3.569000000    -4.444000000
O    -3.164000000    -5.934000000     2.171000000
H    -2.696000000    -5.142000000     1.907000000
H    -2.939000000    -6.048000000     3.095000000
O    -6.301000000     5.284000000     0.479000000
H    -6.245000000     5.844000000     1.253000000
H    -5.423000000     4.913000000     0.388000000
O     1.918000000     1.913000000     0.960000000
H     1.273000000     1.288000000     0.628000000
H     1.454000000     2.397000000     1.642000000
O     3.831000000    -5.533000000     2.437000000
H     3.859000000    -6.062000000     3.234000000
H     3.702000000    -6.168000000     1.732000000
O     0.406000000    -2.480000000    -3.780000000
H     0.828000000    -3.208000000    -3.323000000
H    -0.133000000    -2.057000000    -3.111000000
O    -3.789000000    -1.606000000    -2.506000000
H    -3.319000000    -1.512000000    -1.677000000
H    -4.143000000    -2.495000000    -2.481000000
O    -5.560000000     0.734000000    -6.118000000
H    -5.447000000    -0.217000000    -6.113000000
H    -4.734000000     1.075000000    -5.776000000
O    -1.613000000     4.828000000    -2.846000000
H    -1.902000000     3.930000000    -3.010000000
H    -2.402000000     5.358000000    -2.958000000
O    -7.367000000     2.578000000    -0.016000000
H    -7.409000000     3.531000000     0.059000000
H    -6.958000000     2.422000000    -0.867000000
O     5.030000000    -3.193000000     2.867000000
H     4.512000000    -3.952000000     2.600000000
H     5.939000000    -3.474000000     2.762000000
O     5.622000000    -0.462000000    -1.172000000
H     5.969000000     0.345000000    -1.552000000
H     5.094000000    -0.169000000    -0.429000000
