144
-2803.80825
O    -0.067000000    -2.438000000     3.835000000
H     0.207000000    -2.093000000     2.985000000
H     0.735000000    -2.791000000     4.219000000
O    -4.385000000     0.636000000    -3.200000000
H    -3.455000000     0.479000000    -3.364000000
H    -4.411000000     1.486000000    -2.762000000
O    -0.224000000    -3.663000000    -3.321000000
H     0.571000000    -3.219000000    -3.616000000
H    -0.215000000    -4.501000000    -3.782000000
O     2.458000000    -2.046000000     5.107000000
H     3.227000000    -1.976000000     5.672000000
H     1.715000000    -2.006000000     5.708000000
O     2.462000000     3.245000000    -2.414000000
H     2.950000000     2.681000000    -1.813000000
H     2.698000000     2.928000000    -3.285000000
O    -1.421000000     2.939000000    -1.502000000
H    -1.243000000     3.861000000    -1.684000000
H    -1.260000000     2.845000000    -0.563000000
O     4.634000000    -0.153000000    -4.410000000
H     3.737000000    -0.020000000    -4.103000000
H     4.981000000    -0.843000000    -3.845000000
O    -5.935000000    -4.666000000     3.350000000
H    -5.929000000    -4.232000000     4.203000000
H    -5.896000000    -3.949000000     2.717000000
O     7.270000000     1.360000000     0.977000000
H     7.172000000     1.010000000     0.091000000
H     6.605000000     0.901000000     1.490000000
O    -2.924000000    -4.035000000     6.303000000
H    -2.064000000    -3.797000000     6.650000000
H    -3.102000000    -3.377000000     5.632000000
O    -0.694000000    -5.273000000    -0.400000000
H    -0.426000000    -4.408000000    -0.088000000
H    -0.872000000    -5.770000000     0.398000000
O     1.523000000    -2.338000000    -4.905000000
H     1.839000000    -1.732000000    -4.235000000
H     1.232000000    -1.774000000    -5.621000000
O     5.752000000    -1.633000000    -2.339000000
H     5.666000000    -2.564000000    -2.134000000
H     4.942000000    -1.240000000    -2.014000000
O     0.856000000     2.732000000     5.345000000
H     0.332000000     2.291000000     6.014000000
H     1.238000000     2.019000000     4.832000000
O    -1.070000000    -0.364000000     5.485000000
H    -1.834000000     0.205000000     5.388000000
H    -1.095000000    -0.932000000     4.715000000
O    -1.743000000     1.197000000    -3.842000000
H    -0.848000000     1.045000000    -4.146000000
H    -1.641000000     1.739000000    -3.060000000
O    -5.743000000     2.854000000     0.264000000
H    -5.343000000     2.897000000    -0.605000000
H    -5.006000000     2.920000000     0.871000000
O     0.744000000     0.509000000    -5.735000000
H     0.796000000     1.449000000    -5.908000000
H     1.331000000     0.370000000    -4.991000000
O     4.329000000     2.386000000    -0.295000000
H     4.132000000     1.691000000    -0.923000000
H     3.654000000     2.299000000     0.378000000
O     4.207000000    -1.128000000     0.422000000
H     3.856000000    -0.646000000    -0.326000000
H     4.474000000    -0.449000000     1.041000000
O    -3.273000000     3.521000000     1.853000000
H    -3.219000000     4.472000000     1.956000000
H    -2.363000000     3.237000000     1.774000000
O    -3.283000000     1.308000000     4.712000000
H    -3.072000000     1.860000000     3.959000000
H    -4.221000000     1.437000000     4.849000000
O     0.382000000    -3.099000000     0.827000000
H     0.242000000    -2.158000000     0.723000000
H     1.312000000    -3.225000000     0.638000000
O     7.246000000     1.643000000    -3.839000000
H     6.537000000     1.294000000    -4.380000000
H     7.916000000     1.912000000    -4.467000000
O    -2.276000000    -0.173000000     8.102000000
H    -1.926000000    -0.460000000     7.258000000
H    -2.721000000    -0.944000000     8.452000000
O    -6.383000000    -0.106000000     0.474000000
H    -6.542000000    -0.268000000    -0.456000000
H    -5.867000000     0.699000000     0.492000000
O    -5.255000000    -4.871000000    -1.648000000
H    -5.811000000    -4.115000000    -1.458000000
H    -4.592000000    -4.860000000    -0.958000000
O     3.178000000    -3.700000000     0.555000000
H     3.561000000    -3.994000000    -0.271000000
H     3.586000000    -2.850000000     0.720000000
O    -3.907000000    -4.763000000    -4.348000000
H    -4.073000000    -4.364000000    -3.494000000
H    -4.649000000    -5.352000000    -4.485000000
O     7.232000000     0.289000000    -1.534000000
H     6.698000000    -0.495000000    -1.660000000
H     7.110000000     0.793000000    -2.339000000
O    -6.836000000    -1.601000000     3.797000000
H    -5.996000000    -1.520000000     4.248000000
H    -6.630000000    -1.445000000     2.876000000
O     5.080000000    -4.132000000    -1.825000000
H     5.588000000    -4.753000000    -1.303000000
H     5.303000000    -4.343000000    -2.732000000
O     2.900000000    -2.670000000    -7.216000000
H     2.521000000    -3.139000000    -7.959000000
H     2.270000000    -2.796000000    -6.507000000
O    -2.524000000    -3.797000000    -1.747000000
H    -1.764000000    -3.676000000    -2.317000000
H    -2.295000000    -4.547000000    -1.199000000
O     4.002000000     5.755000000    -1.527000000
H     3.268000000     5.156000000    -1.392000000
H     4.646000000     5.240000000    -2.012000000
O    -4.325000000     3.161000000    -2.022000000
H    -3.387000000     2.983000000    -2.089000000
H    -4.471000000     3.901000000    -2.612000000
O     2.440000000     0.775000000     4.203000000
H     3.292000000     0.804000000     4.638000000
H     2.150000000    -0.131000000     4.304000000
O    -5.137000000    -2.804000000     1.600000000
H    -4.994000000    -2.081000000     0.988000000
H    -4.257000000    -3.116000000     1.812000000
O    -1.602000000    -0.962000000    -7.300000000
H    -1.055000000    -0.506000000    -6.661000000
H    -1.825000000    -1.792000000    -6.877000000
O     5.933000000     4.360000000    -3.219000000
H     6.612000000     4.759000000    -3.763000000
H     6.354000000     3.590000000    -2.837000000
O    -2.206000000    -2.999000000    -5.529000000
H    -1.605000000    -2.808000000    -4.809000000
H    -2.896000000    -3.530000000    -5.132000000
O     3.748000000     2.332000000    -4.799000000
H     3.982000000     2.692000000    -5.654000000
H     4.180000000     1.478000000    -4.771000000
O    -2.431000000    -3.624000000     2.231000000
H    -2.295000000    -4.557000000     2.069000000
H    -1.556000000    -3.283000000     2.418000000
O     6.872000000    -2.604000000     0.827000000
H     5.941000000    -2.482000000     0.641000000
H     7.065000000    -3.488000000     0.515000000
O     2.443000000     2.590000000     1.961000000
H     2.171000000     1.847000000     2.500000000
H     2.801000000     3.221000000     2.585000000
O    -0.502000000     3.346000000     1.270000000
H     0.238000000     2.757000000     1.125000000
H    -0.119000000     4.223000000     1.245000000
O     6.548000000     3.963000000     0.290000000
H     6.858000000     3.188000000     0.758000000
H     5.771000000     3.663000000    -0.181000000
O     5.271000000     0.215000000     2.742000000
H     5.219000000    -0.679000000     3.081000000
H     4.831000000     0.748000000     3.405000000
