144
-2786.56503
O    -4.334000000    -1.417000000     3.227000000
H    -4.617000000    -2.151000000     3.773000000
H    -3.626000000    -1.776000000     2.692000000
O    -4.004000000    -2.214000000    -3.014000000
H    -3.729000000    -2.482000000    -3.891000000
H    -4.045000000    -3.030000000    -2.516000000
O     0.090000000    -0.671000000     7.017000000
H     0.523000000     0.182000000     7.047000000
H     0.115000000    -0.985000000     7.920000000
O    -5.155000000     0.971000000     0.782000000
H    -4.643000000     1.674000000     1.182000000
H    -4.520000000     0.273000000     0.623000000
O     1.961000000    -4.099000000    -0.801000000
H     1.139000000    -3.797000000    -0.414000000
H     2.159000000    -3.451000000    -1.477000000
O     3.261000000     1.841000000    -1.194000000
H     2.836000000     1.922000000    -0.340000000
H     2.755000000     2.417000000    -1.768000000
O    -0.186000000    -3.408000000    -4.646000000
H     0.001000000    -3.129000000    -5.543000000
H     0.200000000    -2.726000000    -4.097000000
O     0.139000000     2.967000000    -3.440000000
H     0.505000000     2.344000000    -4.068000000
H    -0.027000000     3.756000000    -3.955000000
O     3.563000000     1.618000000     4.436000000
H     3.810000000     1.485000000     3.521000000
H     4.216000000     2.230000000     4.775000000
O    -0.643000000    -4.558000000    -0.286000000
H    -0.899000000    -4.435000000    -1.200000000
H    -0.710000000    -5.502000000    -0.144000000
O     1.965000000    -2.549000000     5.884000000
H     1.179000000    -2.015000000     6.003000000
H     2.418000000    -2.147000000     5.143000000
O     3.798000000    -1.177000000    -4.592000000
H     3.692000000    -2.010000000    -5.051000000
H     3.244000000    -1.259000000    -3.815000000
O    -2.242000000    -2.178000000     1.358000000
H    -1.633000000    -2.522000000     0.703000000
H    -2.800000000    -1.571000000     0.871000000
O    -6.311000000     0.310000000     3.945000000
H    -5.567000000    -0.236000000     3.692000000
H    -6.413000000     0.928000000     3.221000000
O     2.288000000     3.738000000     0.679000000
H     1.499000000     4.001000000     0.205000000
H     3.009000000     3.998000000     0.106000000
O    -3.634000000    -2.379000000     6.681000000
H    -2.900000000    -2.001000000     6.198000000
H    -4.005000000    -3.028000000     6.084000000
O     3.656000000    -3.243000000    -6.507000000
H     4.523000000    -3.377000000    -6.890000000
H     3.100000000    -3.890000000    -6.942000000
O     6.415000000    -4.028000000    -3.182000000
H     5.934000000    -3.209000000    -3.062000000
H     5.821000000    -4.582000000    -3.688000000
O    -0.367000000    -2.582000000    -7.667000000
H    -0.899000000    -2.694000000    -8.455000000
H     0.536000000    -2.621000000    -7.981000000
O     4.394000000     2.401000000     2.036000000
H     3.696000000     2.903000000     1.616000000
H     5.202000000     2.759000000     1.667000000
O     0.821000000     4.504000000    -1.372000000
H     0.438000000     3.918000000    -2.024000000
H     0.688000000     5.382000000    -1.731000000
O     3.952000000     2.620000000    -4.664000000
H     4.490000000     2.086000000    -4.079000000
H     3.099000000     2.186000000    -4.668000000
O     1.472000000     1.206000000    -5.014000000
H     1.124000000     0.386000000    -4.664000000
H     0.869000000     1.439000000    -5.720000000
O    -1.918000000    -4.703000000    -3.047000000
H    -1.493000000    -4.136000000    -3.691000000
H    -1.467000000    -5.543000000    -3.132000000
O     1.360000000    -6.458000000    -2.061000000
H     1.425000000    -5.595000000    -1.654000000
H     1.397000000    -6.283000000    -3.001000000
O    -3.223000000     5.585000000     3.310000000
H    -2.779000000     5.792000000     4.133000000
H    -3.775000000     6.347000000     3.137000000
O    -1.612000000    -1.601000000     4.943000000
H    -1.519000000    -1.834000000     4.019000000
H    -1.484000000    -0.653000000     4.965000000
O    -1.571000000    -0.672000000    -5.710000000
H    -1.553000000    -1.358000000    -6.378000000
H    -0.749000000    -0.782000000    -5.232000000
O    -4.496000000     3.269000000     2.222000000
H    -5.435000000     3.453000000     2.191000000
H    -4.109000000     4.062000000     2.595000000
O     3.923000000    -1.657000000     4.169000000
H     3.961000000    -0.746000000     3.877000000
H     4.785000000    -1.822000000     4.552000000
O     3.627000000    -5.995000000     0.218000000
H     3.138000000    -6.773000000    -0.051000000
H     3.131000000    -5.262000000    -0.148000000
O     6.393000000    -0.382000000    -0.636000000
H     5.879000000    -0.240000000    -1.431000000
H     6.030000000    -1.181000000    -0.255000000
O    -0.287000000     5.842000000     2.336000000
H     0.033000000     6.745000000     2.332000000
H    -0.650000000     5.713000000     1.460000000
O    -2.249000000     3.294000000    -2.288000000
H    -1.400000000     3.062000000    -2.665000000
H    -2.771000000     2.496000000    -2.364000000
O     1.799000000     1.607000000     6.748000000
H     2.301000000     1.429000000     5.953000000
H     1.499000000     2.510000000     6.644000000
O    -5.022000000     1.547000000     6.226000000
H    -4.128000000     1.789000000     5.986000000
H    -5.403000000     1.206000000     5.417000000
O    -4.154000000     5.376000000    -2.572000000
H    -3.614000000     6.166000000    -2.544000000
H    -3.554000000     4.667000000    -2.342000000
O    -2.393000000    -4.211000000     2.913000000
H    -2.364000000    -3.459000000     2.322000000
H    -2.277000000    -4.970000000     2.340000000
O    -2.466000000     5.550000000     0.587000000
H    -2.646000000     5.469000000     1.524000000
H    -2.623000000     4.673000000     0.236000000
O    -3.787000000     0.611000000    -5.150000000
H    -2.965000000     0.131000000    -5.252000000
H    -4.342000000     0.289000000    -5.859000000
O    -4.094000000    -1.173000000    -0.491000000
H    -3.948000000    -1.585000000    -1.342000000
H    -4.878000000    -1.602000000    -0.148000000
O     4.382000000    -2.128000000    -0.555000000
H     3.723000000    -1.677000000    -1.083000000
H     3.931000000    -2.903000000    -0.220000000
O     3.639000000    -4.448000000     3.783000000
H     2.689000000    -4.556000000     3.824000000
H     3.774000000    -3.501000000     3.812000000
O     5.280000000     0.733000000    -3.151000000
H     4.473000000     0.858000000    -2.653000000
H     5.020000000     0.195000000    -3.898000000
O     3.644000000    -0.008000000    -7.504000000
H     3.708000000    -0.280000000    -6.588000000
H     4.534000000    -0.099000000    -7.844000000
O    -2.647000000     2.837000000     5.721000000
H    -3.046000000     3.536000000     5.205000000
H    -2.022000000     3.286000000     6.290000000
O     1.753000000     4.179000000     3.339000000
H     1.047000000     4.780000000     3.099000000
H     1.858000000     3.616000000     2.573000000
O    -3.765000000     1.136000000    -2.579000000
H    -4.105000000     0.454000000    -2.000000000
H    -3.925000000     0.801000000    -3.462000000
