144
-2820.63194
O    -3.474000000    -0.915000000     4.277000000
H    -2.630000000    -1.200000000     3.928000000
H    -3.293000000    -0.065000000     4.679000000
O    -6.087000000     0.619000000    -0.386000000
H    -5.768000000     1.379000000     0.101000000
H    -5.589000000    -0.118000000    -0.034000000
O     2.489000000    -5.133000000    -2.885000000
H     1.877000000    -5.663000000    -2.374000000
H     2.236000000    -4.229000000    -2.699000000
O     4.496000000    -2.982000000    -1.517000000
H     3.649000000    -2.796000000    -1.112000000
H     4.282000000    -3.502000000    -2.292000000
O     0.363000000    -3.335000000    -5.129000000
H     0.851000000    -3.176000000    -5.937000000
H     0.732000000    -2.715000000    -4.500000000
O    -0.218000000     1.562000000    -6.993000000
H    -0.967000000     1.070000000    -7.330000000
H     0.131000000     2.019000000    -7.758000000
O     4.457000000    -0.984000000     2.201000000
H     5.147000000    -1.174000000     1.566000000
H     4.408000000    -0.029000000     2.223000000
O     0.355000000    -6.609000000    -1.963000000
H    -0.416000000    -6.051000000    -1.860000000
H     0.339000000    -7.183000000    -1.197000000
O    -0.929000000    -1.993000000     3.578000000
H    -1.187000000    -2.527000000     4.330000000
H    -0.206000000    -1.455000000     3.902000000
O    -0.954000000    -0.674000000     7.342000000
H    -0.335000000    -0.699000000     8.072000000
H    -0.468000000    -0.257000000     6.631000000
O    -1.024000000     5.556000000    -3.152000000
H    -0.527000000     5.344000000    -2.362000000
H    -1.258000000     4.705000000    -3.523000000
O     0.315000000     2.680000000     5.793000000
H     0.985000000     2.459000000     6.440000000
H     0.068000000     3.581000000     6.001000000
O     3.987000000    -5.148000000    -5.343000000
H     3.379000000    -4.774000000    -5.981000000
H     3.473000000    -5.224000000    -4.539000000
O    -1.204000000    -2.787000000     1.181000000
H    -0.790000000    -2.592000000     2.021000000
H    -0.943000000    -2.062000000     0.612000000
O    -1.656000000     4.888000000     3.723000000
H    -1.426000000     5.482000000     4.438000000
H    -0.945000000     4.247000000     3.706000000
O    -6.664000000    -0.616000000     2.668000000
H    -5.752000000    -0.492000000     2.402000000
H    -7.155000000    -0.615000000     1.846000000
O     4.951000000     1.507000000     1.430000000
H     4.244000000     2.110000000     1.660000000
H     5.033000000     1.585000000     0.480000000
O     2.159000000    -3.522000000    -7.135000000
H     2.515000000    -2.679000000    -7.415000000
H     1.600000000    -3.799000000    -7.861000000
O     3.642000000     0.211000000     5.145000000
H     3.604000000    -0.565000000     4.585000000
H     4.275000000     0.786000000     4.715000000
O     2.528000000     2.068000000    -0.269000000
H     2.988000000     2.107000000    -1.107000000
H     2.236000000     1.159000000    -0.198000000
O     2.966000000     0.898000000    -2.824000000
H     3.479000000     1.313000000    -3.518000000
H     2.244000000     0.470000000    -3.283000000
O     1.743000000     0.134000000    -5.867000000
H     1.307000000    -0.455000000    -5.251000000
H     1.046000000     0.711000000    -6.180000000
O    -1.578000000    -5.211000000    -4.229000000
H    -0.890000000    -4.591000000    -4.470000000
H    -1.698000000    -5.752000000    -5.009000000
O    -3.633000000     3.218000000     3.346000000
H    -2.962000000     3.897000000     3.285000000
H    -4.111000000     3.425000000     4.150000000
O    -4.429000000    -1.063000000     0.898000000
H    -3.898000000    -0.888000000     0.121000000
H    -3.957000000    -1.757000000     1.358000000
O    -2.861000000    -2.360000000    -6.880000000
H    -3.220000000    -2.697000000    -7.701000000
H    -1.971000000    -2.085000000    -7.102000000
O    -1.873000000    -1.775000000    -4.127000000
H    -1.776000000    -2.328000000    -4.902000000
H    -0.983000000    -1.482000000    -3.928000000
O    -4.905000000     2.921000000     1.003000000
H    -5.332000000     3.778000000     1.026000000
H    -4.350000000     2.910000000     1.783000000
O     2.741000000    -2.768000000     2.862000000
H     3.331000000    -2.024000000     2.740000000
H     2.915000000    -3.337000000     2.112000000
O     4.273000000    -7.152000000    -2.152000000
H     3.788000000    -6.409000000    -2.513000000
H     4.433000000    -7.721000000    -2.905000000
O     2.592000000     3.795000000    -2.969000000
H     3.337000000     3.215000000    -3.128000000
H     1.839000000     3.318000000    -3.319000000
O     0.177000000     4.520000000    -0.615000000
H    -0.106000000     3.623000000    -0.442000000
H     1.133000000     4.480000000    -0.587000000
O    -1.564000000     2.972000000    -4.645000000
H    -1.142000000     2.288000000    -5.165000000
H    -2.214000000     2.506000000    -4.119000000
O     1.029000000    -0.051000000     4.605000000
H     1.864000000    -0.176000000     5.056000000
H     0.882000000     0.895000000     4.631000000
O     4.273000000    -4.893000000     1.792000000
H     4.651000000    -5.218000000     2.609000000
H     4.973000000    -4.377000000     1.392000000
O    -6.500000000     0.863000000     5.231000000
H    -5.587000000     0.904000000     5.513000000
H    -6.499000000     0.238000000     4.506000000
O    -4.496000000     4.356000000    -2.336000000
H    -4.053000000     3.507000000    -2.319000000
H    -4.780000000     4.496000000    -1.433000000
O    -0.826000000     6.683000000     1.429000000
H    -0.654000000     5.754000000     1.275000000
H    -1.562000000     6.889000000     0.853000000
O    -3.404000000     0.303000000    -5.206000000
H    -3.118000000     0.309000000    -6.120000000
H    -3.057000000    -0.516000000    -4.852000000
O    -3.451000000    -1.225000000    -1.873000000
H    -2.907000000    -1.470000000    -2.622000000
H    -4.111000000    -1.915000000    -1.821000000
O     5.991000000    -3.772000000    -4.034000000
H     5.400000000    -4.256000000    -4.611000000
H     6.662000000    -3.421000000    -4.620000000
O     5.197000000    -0.537000000    -2.226000000
H     5.128000000    -1.458000000    -1.978000000
H     4.297000000    -0.271000000    -2.414000000
O     2.244000000    -0.958000000    -8.310000000
H     2.157000000    -0.337000000    -7.587000000
H     3.108000000    -0.775000000    -8.679000000
O     5.771000000     1.953000000    -1.193000000
H     5.639000000     1.188000000    -1.754000000
H     6.465000000     2.450000000    -1.625000000
O    -2.195000000     1.510000000     5.045000000
H    -1.379000000     2.002000000     5.132000000
H    -2.650000000     1.928000000     4.314000000
O     3.242000000     3.443000000     1.930000000
H     3.005000000     4.366000000     1.839000000
H     2.728000000     2.997000000     1.257000000
O    -4.169000000     0.016000000     7.076000000
H    -3.513000000     0.621000000     7.422000000
H    -3.664000000    -0.619000000     6.568000000
O    -3.530000000     1.572000000    -2.849000000
H    -3.687000000     0.868000000    -2.220000000
H    -3.814000000     1.210000000    -3.689000000
