144
-2818.23148
O    -4.507000000    -1.325000000    -0.729000000
H    -4.755000000    -0.401000000    -0.771000000
H    -4.049000000    -1.487000000    -1.554000000
O    -0.130000000    -4.388000000    -2.485000000
H    -0.003000000    -4.141000000    -3.401000000
H     0.722000000    -4.236000000    -2.076000000
O    -2.075000000    -3.466000000    -4.673000000
H    -1.266000000    -3.322000000    -5.164000000
H    -2.159000000    -2.691000000    -4.117000000
O     0.566000000    -0.469000000     6.663000000
H     0.307000000    -0.971000000     7.436000000
H     0.154000000    -0.927000000     5.931000000
O    -2.113000000     3.409000000    -4.170000000
H    -1.680000000     3.967000000    -3.524000000
H    -1.395000000     3.019000000    -4.669000000
O     0.633000000    -3.647000000    -5.118000000
H     0.737000000    -3.578000000    -6.068000000
H     0.974000000    -2.819000000    -4.780000000
O    -1.514000000     2.763000000    -7.527000000
H    -0.960000000     2.010000000    -7.733000000
H    -1.078000000     3.503000000    -7.950000000
O     1.125000000    -3.990000000     4.204000000
H     0.400000000    -4.250000000     3.636000000
H     1.895000000    -4.404000000     3.814000000
O    -3.782000000     2.491000000     6.427000000
H    -4.541000000     2.743000000     6.953000000
H    -3.221000000     3.267000000     6.431000000
O     2.120000000     5.444000000     0.416000000
H     1.527000000     5.551000000    -0.327000000
H     2.603000000     6.270000000     0.457000000
O    -3.701000000     4.529000000     1.707000000
H    -4.010000000     4.431000000     2.608000000
H    -2.794000000     4.822000000     1.796000000
O    -1.170000000     5.346000000     1.680000000
H    -0.966000000     6.200000000     2.061000000
H    -0.320000000     4.986000000     1.427000000
O     0.558000000     2.060000000    -4.515000000
H     1.029000000     1.944000000    -5.340000000
H     0.250000000     1.182000000    -4.290000000
O    -2.060000000    -3.153000000     0.553000000
H    -1.413000000    -3.046000000    -0.144000000
H    -2.736000000    -2.506000000     0.354000000
O     4.658000000    -1.539000000    -3.559000000
H     4.321000000    -1.421000000    -4.447000000
H     5.589000000    -1.330000000    -3.627000000
O     3.287000000     1.074000000    -2.737000000
H     2.958000000     1.369000000    -1.888000000
H     4.166000000     0.745000000    -2.551000000
O     4.116000000     0.800000000     3.559000000
H     5.029000000     1.050000000     3.700000000
H     3.612000000     1.447000000     4.054000000
O    -2.653000000     0.228000000     7.598000000
H    -3.016000000     0.965000000     7.106000000
H    -2.372000000    -0.393000000     6.925000000
O     1.964000000    -3.116000000     6.835000000
H     1.467000000    -3.206000000     6.022000000
H     2.372000000    -2.252000000     6.772000000
O     3.427000000    -1.940000000     3.980000000
H     3.481000000    -0.984000000     3.961000000
H     2.489000000    -2.126000000     4.011000000
O     4.188000000     0.035000000    -7.803000000
H     3.693000000    -0.079000000    -6.992000000
H     4.598000000     0.895000000    -7.714000000
O     2.794000000    -3.571000000    -2.445000000
H     2.454000000    -2.688000000    -2.590000000
H     3.258000000    -3.785000000    -3.254000000
O    -4.916000000     4.423000000    -0.826000000
H    -4.443000000     4.334000000     0.001000000
H    -4.295000000     4.858000000    -1.411000000
O    -5.342000000     1.969000000     4.281000000
H    -4.649000000     2.056000000     4.935000000
H    -4.882000000     1.977000000     3.442000000
O     2.412000000    -6.109000000    -1.443000000
H     2.821000000    -6.588000000    -2.164000000
H     2.530000000    -5.187000000    -1.670000000
O    -3.890000000    -0.827000000     3.149000000
H    -4.094000000    -0.085000000     2.579000000
H    -3.070000000    -0.582000000     3.577000000
O    -1.420000000    -0.727000000    -6.237000000
H    -0.990000000    -0.739000000    -5.382000000
H    -0.974000000    -0.029000000    -6.719000000
O     0.632000000     0.347000000    -7.571000000
H     0.413000000    -0.208000000    -8.320000000
H     1.562000000     0.544000000    -7.682000000
O    -4.985000000     1.433000000    -1.125000000
H    -4.581000000     1.558000000    -1.984000000
H    -5.515000000     2.218000000    -0.994000000
O     5.291000000    -2.839000000     1.775000000
H     4.895000000    -2.703000000     0.915000000
H     4.731000000    -2.348000000     2.377000000
O     4.353000000    -2.180000000    -0.608000000
H     3.934000000    -2.605000000    -1.356000000
H     4.664000000    -1.343000000    -0.952000000
O     3.408000000     3.716000000     2.480000000
H     3.067000000     4.212000000     1.736000000
H     2.941000000     4.069000000     3.237000000
O     5.384000000     0.377000000    -1.108000000
H     6.016000000    -0.036000000    -0.520000000
H     5.036000000     1.114000000    -0.606000000
O     3.318000000    -0.397000000     6.656000000
H     3.334000000    -0.591000000     7.593000000
H     2.466000000     0.014000000     6.511000000
O    -4.053000000     1.449000000    -3.676000000
H    -4.490000000     1.106000000    -4.455000000
H    -3.307000000     1.942000000    -4.017000000
O    -0.109000000    -4.212000000     1.863000000
H     0.333000000    -4.753000000     1.209000000
H    -0.978000000    -4.053000000     1.495000000
O    -3.120000000    -1.810000000    -8.174000000
H    -3.765000000    -1.219000000    -7.784000000
H    -2.293000000    -1.570000000    -7.756000000
O    -2.954000000    -1.081000000    -3.124000000
H    -3.483000000    -0.288000000    -3.214000000
H    -2.079000000    -0.819000000    -3.410000000
O     2.786000000     0.338000000    -5.400000000
H     1.990000000    -0.153000000    -5.193000000
H     3.147000000     0.579000000    -4.547000000
O    -0.080000000    -6.614000000    -0.030000000
H     0.643000000    -6.359000000    -0.603000000
H     0.174000000    -7.472000000     0.310000000
O     0.780000000     3.147000000    -1.771000000
H     0.581000000     2.637000000    -2.557000000
H     1.432000000     2.624000000    -1.305000000
O     3.353000000     3.317000000    -4.601000000
H     2.520000000     3.767000000    -4.743000000
H     3.192000000     2.746000000    -3.850000000
O     2.578000000     1.652000000    -0.067000000
H     2.796000000     2.311000000     0.592000000
H     1.915000000     1.104000000     0.354000000
O    -1.372000000    -2.073000000     5.366000000
H    -1.133000000    -2.712000000     4.696000000
H    -1.549000000    -2.599000000     6.146000000
O     4.352000000    -5.624000000     0.583000000
H     3.889000000    -6.320000000     0.118000000
H     4.693000000    -5.057000000    -0.109000000
O     4.948000000     1.819000000     1.273000000
H     4.614000000     2.648000000     1.615000000
H     4.532000000     1.150000000     1.817000000
O    -4.098000000     1.611000000     1.771000000
H    -3.919000000     2.527000000     1.561000000
H    -4.483000000     1.252000000     0.972000000
O     3.044000000    -5.495000000     3.311000000
H     3.543000000    -5.257000000     2.530000000
H     2.729000000    -6.381000000     3.133000000
