144
-2831.91107
O     0.689000000    -4.131000000     3.134000000
H     1.255000000    -3.487000000     2.709000000
H     0.019000000    -4.330000000     2.480000000
O    -1.317000000    -1.633000000     5.319000000
H    -1.955000000    -2.347000000     5.308000000
H    -0.964000000    -1.613000000     4.429000000
O     1.537000000    -4.973000000    -1.121000000
H     2.132000000    -4.240000000    -0.966000000
H     0.812000000    -4.591000000    -1.616000000
O     3.986000000     0.872000000    -3.244000000
H     3.943000000    -0.083000000    -3.305000000
H     4.876000000     1.089000000    -3.521000000
O     1.989000000    -2.729000000     1.205000000
H     2.700000000    -3.203000000     0.774000000
H     1.766000000    -2.025000000     0.594000000
O     0.241000000    -5.747000000    -6.674000000
H    -0.005000000    -6.368000000    -7.360000000
H    -0.567000000    -5.273000000    -6.479000000
O    -1.982000000     1.715000000    -2.194000000
H    -1.071000000     1.659000000    -2.484000000
H    -2.316000000     2.510000000    -2.610000000
O    -1.765000000     5.963000000    -0.824000000
H    -1.338000000     5.554000000    -0.070000000
H    -2.227000000     5.246000000    -1.256000000
O     1.670000000     5.617000000    -1.942000000
H     1.329000000     5.878000000    -2.798000000
H     2.286000000     4.910000000    -2.135000000
O     1.246000000     5.834000000     2.246000000
H     0.439000000     5.582000000     2.695000000
H     0.965000000     6.466000000     1.584000000
O     6.156000000     1.790000000    -0.804000000
H     6.305000000     0.959000000    -1.256000000
H     5.801000000     1.538000000     0.048000000
O    -6.802000000    -1.443000000     1.399000000
H    -5.853000000    -1.560000000     1.361000000
H    -7.012000000    -1.488000000     2.332000000
O    -4.473000000    -1.093000000    -0.036000000
H    -4.524000000    -2.014000000    -0.293000000
H    -3.981000000    -0.675000000    -0.743000000
O    -2.683000000     3.152000000     4.720000000
H    -1.898000000     2.607000000     4.671000000
H    -2.934000000     3.292000000     3.806000000
O     2.279000000     1.767000000    -5.112000000
H     3.007000000     1.604000000    -4.512000000
H     2.073000000     0.907000000    -5.477000000
O    -2.970000000     3.169000000     0.075000000
H    -2.550000000     2.751000000    -0.676000000
H    -3.535000000     2.490000000     0.443000000
O    -0.327000000     1.561000000     4.851000000
H     0.069000000     0.707000000     4.676000000
H     0.414000000     2.165000000     4.889000000
O    -0.925000000    -0.227000000    -4.698000000
H    -0.116000000    -0.492000000    -5.136000000
H    -0.752000000     0.663000000    -4.394000000
O    -3.848000000    -6.435000000    -1.662000000
H    -3.095000000    -5.943000000    -1.990000000
H    -4.290000000    -6.749000000    -2.451000000
O     4.482000000    -1.747000000    -3.721000000
H     3.739000000    -2.284000000    -3.445000000
H     4.683000000    -2.053000000    -4.606000000
O    -4.433000000     3.657000000     2.753000000
H    -4.908000000     2.845000000     2.931000000
H    -4.612000000     3.841000000     1.831000000
O     2.087000000    -2.728000000    -4.064000000
H     1.338000000    -2.638000000    -3.476000000
H     2.169000000    -3.671000000    -4.206000000
O     1.321000000    -7.442000000    -2.289000000
H     1.644000000    -7.372000000    -3.188000000
H     1.402000000    -6.556000000    -1.936000000
O     3.905000000     4.542000000     1.945000000
H     2.948000000     4.570000000     1.925000000
H     4.149000000     5.180000000     2.615000000
O     0.956000000    -0.782000000     3.893000000
H     1.211000000    -0.773000000     2.971000000
H     1.287000000    -1.617000000     4.225000000
O     5.187000000     4.456000000    -0.567000000
H     5.605000000     3.599000000    -0.484000000
H     4.645000000     4.535000000     0.218000000
O    -5.411000000     1.968000000     0.620000000
H    -5.319000000     1.050000000     0.363000000
H    -5.719000000     2.409000000    -0.171000000
O     6.167000000    -0.820000000    -1.590000000
H     6.968000000    -1.214000000    -1.933000000
H     5.502000000    -1.016000000    -2.250000000
O     3.430000000     3.447000000    -2.642000000
H     3.232000000     2.511000000    -2.678000000
H     4.297000000     3.493000000    -2.238000000
O    -4.806000000    -3.672000000    -3.653000000
H    -4.173000000    -2.992000000    -3.421000000
H    -4.274000000    -4.380000000    -4.015000000
O     1.413000000    -0.739000000    -5.811000000
H     1.668000000    -1.196000000    -6.612000000
H     1.756000000    -1.286000000    -5.104000000
O    -1.982000000    -5.883000000    -3.460000000
H    -1.977000000    -6.035000000    -4.405000000
H    -1.057000000    -5.820000000    -3.223000000
O     3.600000000     2.514000000     5.900000000
H     3.455000000     2.128000000     6.764000000
H     2.877000000     3.131000000     5.788000000
O     3.896000000    -3.654000000    -0.586000000
H     4.609000000    -3.178000000    -0.160000000
H     4.313000000    -4.434000000    -0.952000000
O     4.813000000     1.568000000     2.034000000
H     4.511000000     1.126000000     2.828000000
H     4.192000000     2.286000000     1.909000000
O    -4.193000000    -4.046000000     4.451000000
H    -3.401000000    -4.530000000     4.685000000
H    -4.361000000    -4.288000000     3.540000000
O    -1.969000000    -4.428000000    -6.714000000
H    -2.041000000    -3.804000000    -5.992000000
H    -2.839000000    -4.821000000    -6.779000000
O     0.410000000     2.057000000    -3.203000000
H     0.647000000     2.695000000    -2.531000000
H     1.202000000     1.961000000    -3.733000000
O    -2.915000000    -6.734000000     0.898000000
H    -2.184000000    -6.116000000     0.886000000
H    -3.337000000    -6.622000000     0.046000000
O    -0.961000000    -4.815000000     0.894000000
H    -1.152000000    -4.214000000     0.174000000
H    -0.201000000    -5.314000000     0.593000000
O    -3.997000000    -3.923000000    -0.013000000
H    -3.158000000    -3.660000000    -0.390000000
H    -4.137000000    -4.813000000    -0.336000000
O     0.564000000     7.294000000     0.036000000
H     0.966000000     6.675000000    -0.573000000
H    -0.175000000     7.662000000    -0.449000000
O     3.834000000     0.361000000     4.232000000
H     3.790000000     1.015000000     4.930000000
H     3.387000000    -0.405000000     4.591000000
O     6.881000000     3.313000000     1.849000000
H     5.974000000     3.016000000     1.775000000
H     7.333000000     2.594000000     2.290000000
O    -1.880000000    -2.807000000    -4.571000000
H    -1.610000000    -1.937000000    -4.866000000
H    -1.363000000    -2.964000000    -3.781000000
O    -1.697000000     4.784000000     1.742000000
H    -2.436000000     5.117000000     2.252000000
H    -2.078000000     4.112000000     1.178000000
O    -3.149000000    -0.917000000    -2.680000000
H    -2.766000000    -0.044000000    -2.601000000
H    -2.423000000    -1.472000000    -2.965000000
O     2.392000000    -5.206000000    -5.207000000
H     2.952000000    -5.889000000    -5.575000000
H     1.540000000    -5.346000000    -5.619000000
