144
-2821.16940
O    -0.158000000    -4.710000000     2.151000000
H     0.536000000    -4.209000000     1.723000000
H     0.300000000    -5.422000000     2.597000000
O    -0.253000000    -2.952000000     4.684000000
H    -1.171000000    -2.752000000     4.496000000
H     0.240000000    -2.420000000     4.058000000
O     4.582000000     4.944000000    -2.825000000
H     4.468000000     4.014000000    -2.629000000
H     5.013000000     4.959000000    -3.679000000
O     3.370000000     0.089000000    -3.884000000
H     2.684000000    -0.375000000    -4.364000000
H     3.975000000     0.391000000    -4.563000000
O    -5.686000000     2.104000000     1.912000000
H    -5.531000000     1.574000000     2.694000000
H    -4.991000000     1.848000000     1.306000000
O     1.407000000    -2.057000000     1.747000000
H     2.019000000    -2.157000000     1.018000000
H     0.844000000    -1.327000000     1.490000000
O     0.620000000    -6.155000000    -5.361000000
H     0.069000000    -6.916000000    -5.177000000
H     1.187000000    -6.439000000    -6.078000000
O    -5.443000000     0.338000000     3.840000000
H    -6.049000000    -0.043000000     4.476000000
H    -4.578000000     0.216000000     4.230000000
O    -6.773000000    -1.184000000     2.005000000
H    -6.305000000    -0.516000000     2.507000000
H    -6.110000000    -1.847000000     1.813000000
O     1.110000000     5.720000000     0.196000000
H     0.321000000     5.552000000     0.712000000
H     1.198000000     6.674000000     0.198000000
O    -2.798000000    -0.112000000     5.318000000
H    -2.817000000     0.193000000     6.225000000
H    -2.237000000     0.517000000     4.864000000
O    -3.949000000    -1.117000000    -0.646000000
H    -3.257000000    -1.741000000    -0.869000000
H    -4.544000000    -1.611000000    -0.082000000
O    -0.579000000     5.266000000     3.488000000
H    -1.299000000     5.189000000     4.114000000
H    -0.737000000     4.567000000     2.854000000
O    -2.673000000     3.561000000     1.878000000
H    -1.985000000     4.004000000     1.382000000
H    -3.176000000     3.085000000     1.217000000
O     2.007000000     1.039000000    -6.750000000
H     2.935000000     1.235000000    -6.619000000
H     1.958000000     0.084000000    -6.726000000
O    -2.430000000     2.384000000     4.304000000
H    -2.238000000     2.735000000     3.434000000
H    -3.218000000     2.850000000     4.582000000
O    -4.635000000    -3.094000000     1.499000000
H    -4.928000000    -3.935000000     1.149000000
H    -3.897000000    -3.314000000     2.067000000
O    -1.871000000     2.691000000    -1.544000000
H    -1.813000000     3.194000000    -2.356000000
H    -0.965000000     2.459000000    -1.341000000
O     1.457000000    -0.494000000     5.586000000
H     2.176000000    -0.824000000     5.048000000
H     1.570000000     0.456000000     5.580000000
O    -0.709000000     1.411000000    -5.174000000
H    -0.097000000     1.521000000    -5.901000000
H    -0.333000000     1.930000000    -4.463000000
O    -2.499000000    -6.616000000    -4.309000000
H    -1.844000000    -5.976000000    -4.030000000
H    -2.190000000    -7.447000000    -3.949000000
O     4.483000000    -2.751000000    -2.930000000
H     4.055000000    -3.543000000    -3.255000000
H     5.120000000    -2.528000000    -3.610000000
O     1.615000000    -2.218000000    -4.560000000
H     0.735000000    -2.266000000    -4.186000000
H     1.952000000    -3.111000000    -4.493000000
O     2.965000000     3.896000000     0.000000000
H     2.911000000     3.921000000    -0.955000000
H     2.226000000     4.427000000     0.296000000
O     3.220000000    -1.941000000     3.964000000
H     2.612000000    -2.069000000     3.235000000
H     3.894000000    -2.608000000     3.834000000
O     5.323000000     5.657000000     1.538000000
H     5.682000000     5.347000000     2.369000000
H     5.090000000     4.858000000     1.065000000
O    -3.469000000     1.446000000     0.300000000
H    -3.541000000     0.542000000    -0.003000000
H    -2.968000000     1.890000000    -0.384000000
O     6.029000000    -0.166000000    -1.751000000
H     5.327000000    -0.306000000    -2.386000000
H     6.768000000     0.143000000    -2.276000000
O     4.110000000     2.426000000    -2.026000000
H     3.960000000     1.574000000    -2.436000000
H     4.697000000     2.239000000    -1.293000000
O     2.109000000    -1.620000000    -7.181000000
H     1.545000000    -2.239000000    -7.645000000
H     1.889000000    -1.741000000    -6.258000000
O    -4.936000000    -2.038000000    -4.555000000
H    -4.181000000    -1.504000000    -4.802000000
H    -4.587000000    -2.671000000    -3.928000000
O    -0.020000000    -5.186000000    -2.570000000
H     0.538000000    -5.150000000    -3.347000000
H    -0.458000000    -4.336000000    -2.550000000
O     1.498000000     4.767000000     5.654000000
H     0.775000000     4.700000000     5.029000000
H     2.002000000     5.524000000     5.356000000
O     4.043000000     1.335000000     5.607000000
H     3.338000000     1.905000000     5.914000000
H     4.730000000     1.429000000     6.267000000
O     1.661000000     2.153000000     6.489000000
H     1.446000000     2.112000000     7.421000000
H     1.539000000     3.074000000     6.256000000
O     3.047000000    -2.598000000    -0.498000000
H     3.067000000    -3.545000000    -0.360000000
H     3.594000000    -2.457000000    -1.271000000
O     4.942000000     2.045000000     0.715000000
H     4.724000000     1.353000000     1.339000000
H     4.223000000     2.672000000     0.792000000
O    -2.178000000    -5.203000000    -0.019000000
H    -1.983000000    -4.419000000    -0.533000000
H    -1.411000000    -5.318000000     0.542000000
O    -1.063000000    -4.230000000    -6.969000000
H    -1.371000000    -3.377000000    -6.662000000
H    -1.063000000    -4.780000000    -6.186000000
O     1.364000000     2.549000000    -3.515000000
H     2.154000000     2.015000000    -3.599000000
H     1.396000000     2.884000000    -2.618000000
O    -3.471000000    -7.578000000    -1.096000000
H    -3.418000000    -6.679000000    -0.769000000
H    -4.030000000    -7.518000000    -1.870000000
O    -2.588000000    -3.753000000     3.337000000
H    -2.794000000    -4.511000000     3.883000000
H    -1.891000000    -4.058000000     2.755000000
O     1.607000000    -6.090000000    -0.088000000
H     0.996000000    -5.796000000    -0.763000000
H     2.473000000    -5.905000000    -0.452000000
O    -3.807000000    -3.990000000    -3.192000000
H    -3.264000000    -3.636000000    -2.489000000
H    -3.398000000    -4.827000000    -3.413000000
O     4.536000000     0.280000000     2.831000000
H     4.747000000     0.668000000     3.681000000
H     3.895000000    -0.402000000     3.032000000
O    -1.468000000    -1.519000000    -5.441000000
H    -1.370000000    -0.572000000    -5.339000000
H    -1.297000000    -1.873000000    -4.569000000
O    -1.698000000     5.669000000     0.547000000
H    -1.846000000     6.318000000     1.235000000
H    -2.551000000     5.568000000     0.125000000
O    -3.017000000     0.309000000    -2.849000000
H    -2.450000000     0.948000000    -2.416000000
H    -3.415000000    -0.183000000    -2.131000000
