144
-2773.54700
O     2.837000000    -2.325000000     4.242000000
H     2.768000000    -1.993000000     5.137000000
H     2.120000000    -1.900000000     3.772000000
O    -3.544000000    -6.776000000     3.292000000
H    -3.236000000    -6.172000000     2.617000000
H    -4.116000000    -6.245000000     3.846000000
O     4.476000000    -4.292000000    -2.695000000
H     4.964000000    -5.115000000    -2.719000000
H     3.821000000    -4.381000000    -3.386000000
O     0.163000000     5.259000000     4.084000000
H     1.061000000     4.952000000     4.203000000
H    -0.066000000     4.990000000     3.194000000
O    -6.147000000    -5.727000000     1.726000000
H    -5.246000000    -5.814000000     1.414000000
H    -6.067000000    -5.679000000     2.679000000
O    -3.147000000     3.069000000    -1.713000000
H    -3.996000000     3.222000000    -1.297000000
H    -2.977000000     2.137000000    -1.577000000
O     1.004000000    -0.438000000    -3.402000000
H     0.230000000    -0.603000000    -3.941000000
H     0.653000000    -0.147000000    -2.561000000
O    -6.391000000    -2.754000000    -3.149000000
H    -5.744000000    -3.230000000    -2.628000000
H    -6.779000000    -2.129000000    -2.536000000
O    -5.800000000     3.585000000    -0.581000000
H    -6.271000000     2.780000000    -0.364000000
H    -6.287000000     3.955000000    -1.317000000
O     4.267000000     4.217000000     1.837000000
H     3.862000000     5.028000000     2.146000000
H     5.040000000     4.110000000     2.391000000
O     4.541000000    -1.192000000     0.163000000
H     4.175000000    -1.915000000     0.672000000
H     4.889000000    -0.589000000     0.819000000
O     0.723000000     6.878000000    -0.353000000
H     0.645000000     7.561000000     0.312000000
H    -0.177000000     6.594000000    -0.512000000
O    -3.841000000    -4.780000000    -3.960000000
H    -4.048000000    -4.804000000    -4.894000000
H    -3.184000000    -5.467000000    -3.843000000
O     6.621000000     4.132000000    -2.197000000
H     6.094000000     3.363000000    -1.981000000
H     7.147000000     4.290000000    -1.414000000
O     3.781000000     0.291000000    -4.592000000
H     2.995000000     0.210000000    -4.053000000
H     3.761000000     1.194000000    -4.910000000
O    -5.225000000    -1.960000000     5.160000000
H    -5.063000000    -1.743000000     4.242000000
H    -4.381000000    -1.827000000     5.590000000
O    -7.665000000    -0.867000000     2.889000000
H    -7.218000000    -0.089000000     2.554000000
H    -6.991000000    -1.546000000     2.899000000
O     2.483000000     6.343000000    -2.145000000
H     2.930000000     5.618000000    -1.706000000
H     1.717000000     6.518000000    -1.598000000
O    -4.708000000    -4.203000000    -1.474000000
H    -4.051000000    -3.659000000    -1.040000000
H    -4.244000000    -4.593000000    -2.215000000
O    -5.036000000    -2.307000000     2.252000000
H    -4.380000000    -2.146000000     1.575000000
H    -5.307000000    -3.215000000     2.112000000
O    -0.823000000     0.655000000     5.443000000
H    -0.321000000     0.332000000     4.694000000
H    -1.496000000     1.215000000     5.056000000
O    -6.446000000     2.015000000     1.999000000
H    -6.049000000     2.657000000     2.587000000
H    -5.707000000     1.505000000     1.668000000
O    -1.900000000     6.175000000    -1.050000000
H    -2.401000000     5.360000000    -1.099000000
H    -2.483000000     6.837000000    -1.422000000
O    -3.923000000     0.314000000    -2.171000000
H    -3.778000000    -0.632000000    -2.166000000
H    -4.428000000     0.476000000    -2.967000000
O     1.699000000    -3.897000000    -3.090000000
H     1.228000000    -4.354000000    -2.393000000
H     2.082000000    -3.134000000    -2.659000000
O     1.906000000    -4.392000000     0.996000000
H     2.698000000    -3.922000000     1.255000000
H     1.199000000    -3.759000000     1.123000000
O     5.745000000     2.265000000     4.094000000
H     6.451000000     1.842000000     4.584000000
H     5.418000000     2.944000000     4.684000000
O    -0.616000000    -5.652000000    -1.621000000
H    -0.907000000    -6.327000000    -1.008000000
H    -1.043000000    -4.851000000    -1.316000000
O     4.748000000     1.981000000    -1.692000000
H     5.047000000     1.475000000    -0.937000000
H     4.590000000     1.326000000    -2.372000000
O    -0.117000000    -6.476000000    -4.845000000
H    -0.196000000    -5.812000000    -4.160000000
H     0.740000000    -6.311000000    -5.239000000
O    -4.140000000     5.033000000     1.023000000
H    -4.455000000     5.936000000     1.070000000
H    -4.823000000     4.567000000     0.540000000
O    -4.837000000     0.210000000     0.285000000
H    -4.280000000    -0.566000000     0.347000000
H    -4.703000000     0.531000000    -0.607000000
O     5.560000000    -1.664000000    -2.284000000
H     5.185000000    -1.547000000    -1.411000000
H     4.957000000    -2.263000000    -2.725000000
O    -6.924000000    -4.144000000    -0.068000000
H    -6.658000000    -4.835000000     0.538000000
H    -6.178000000    -4.045000000    -0.660000000
O     4.652000000     0.651000000     2.131000000
H     3.851000000     1.175000000     2.143000000
H     5.135000000     0.935000000     2.907000000
O     0.450000000     4.442000000    -5.011000000
H    -0.094000000     4.033000000    -4.338000000
H     0.625000000     3.741000000    -5.638000000
O     2.348000000     2.143000000     3.461000000
H     2.181000000     2.337000000     4.384000000
H     2.293000000     2.993000000     3.024000000
O     6.603000000     1.781000000     0.350000000
H     6.740000000     2.696000000     0.593000000
H     6.142000000     1.401000000     1.097000000
O     4.130000000    -3.211000000     1.789000000
H     5.031000000    -3.533000000     1.785000000
H     3.962000000    -2.980000000     2.703000000
O    -3.489000000    -5.497000000     0.872000000
H    -3.134000000    -4.667000000     0.554000000
H    -3.362000000    -6.106000000     0.144000000
O    -1.493000000    -0.704000000    -5.021000000
H    -1.795000000    -1.352000000    -4.384000000
H    -2.257000000    -0.538000000    -5.573000000
O     0.848000000    -0.293000000     3.069000000
H     1.252000000     0.524000000     3.362000000
H     0.736000000    -0.180000000     2.125000000
O     3.972000000     4.633000000    -0.805000000
H     3.869000000     4.335000000     0.099000000
H     4.137000000     3.833000000    -1.304000000
O    -1.259000000     4.675000000     1.390000000
H    -2.202000000     4.736000000     1.239000000
H    -0.867000000     4.862000000     0.537000000
O    -3.205000000    -7.025000000    -1.227000000
H    -3.079000000    -7.970000000    -1.137000000
H    -3.186000000    -6.870000000    -2.171000000
O    -2.196000000    -2.672000000    -3.305000000
H    -2.817000000    -3.317000000    -3.641000000
H    -2.027000000    -2.949000000    -2.404000000
O    -2.835000000     2.752000000     5.099000000
H    -3.639000000     2.453000000     4.674000000
H    -2.773000000     3.679000000     4.871000000
O     1.671000000    -3.735000000    -5.881000000
H     1.786000000    -4.681000000    -5.970000000
H     1.643000000    -3.585000000    -4.936000000
