144
-2817.35284
O     1.567000000     6.693000000    -0.591000000
H     0.923000000     6.199000000    -0.083000000
H     1.156000000     7.546000000    -0.733000000
O     3.369000000    -2.789000000     0.156000000
H     3.546000000    -2.306000000    -0.652000000
H     4.074000000    -2.530000000     0.749000000
O    -3.497000000    -4.959000000     3.802000000
H    -3.600000000    -5.901000000     3.936000000
H    -2.556000000    -4.836000000     3.681000000
O    -4.540000000     1.245000000    -0.917000000
H    -4.439000000     0.304000000    -1.062000000
H    -3.938000000     1.442000000    -0.199000000
O     1.350000000    -0.901000000     2.572000000
H     1.391000000    -0.432000000     1.739000000
H     1.216000000    -1.816000000     2.325000000
O     6.505000000     0.448000000     1.392000000
H     6.827000000     0.407000000     2.292000000
H     6.518000000     1.380000000     1.174000000
O    -3.314000000     2.704000000     1.843000000
H    -4.132000000     2.753000000     2.338000000
H    -2.629000000     2.717000000     2.511000000
O     6.065000000     3.611000000    -0.233000000
H     5.413000000     4.308000000    -0.163000000
H     6.726000000     3.835000000     0.422000000
O    -6.142000000    -4.593000000    -1.804000000
H    -5.985000000    -5.178000000    -1.063000000
H    -6.368000000    -5.178000000    -2.527000000
O     0.938000000    -7.717000000     0.627000000
H     0.363000000    -7.299000000     1.268000000
H     1.154000000    -7.019000000     0.008000000
O     1.381000000    -4.981000000    -0.843000000
H     2.135000000    -4.667000000    -1.343000000
H     0.671000000    -4.385000000    -1.079000000
O    -2.779000000    -1.471000000     3.400000000
H    -3.143000000    -0.708000000     3.849000000
H    -3.451000000    -1.719000000     2.765000000
O    -4.504000000     5.238000000     0.339000000
H    -4.282000000     4.548000000    -0.286000000
H    -4.049000000     4.988000000     1.143000000
O    -5.139000000    -7.053000000    -0.395000000
H    -4.903000000    -7.608000000    -1.138000000
H    -4.411000000    -6.436000000    -0.317000000
O    -1.670000000     2.671000000     4.044000000
H    -1.760000000     2.916000000     4.965000000
H    -0.950000000     2.040000000     4.033000000
O    -0.116000000     0.704000000     3.950000000
H     0.336000000     0.148000000     3.315000000
H    -0.046000000     0.227000000     4.777000000
O    -4.301000000     0.859000000     4.556000000
H    -4.418000000     1.565000000     5.191000000
H    -5.107000000     0.346000000     4.616000000
O    -2.303000000     3.638000000    -0.547000000
H    -2.638000000     3.392000000     0.315000000
H    -1.680000000     2.946000000    -0.768000000
O    -1.947000000     5.493000000    -2.962000000
H    -2.621000000     4.902000000    -3.296000000
H    -1.470000000     4.972000000    -2.316000000
O     0.978000000     4.281000000    -3.619000000
H     1.907000000     4.121000000    -3.453000000
H     0.859000000     5.213000000    -3.436000000
O    -2.089000000    -5.595000000    -4.659000000
H    -1.887000000    -5.813000000    -3.749000000
H    -1.704000000    -4.728000000    -4.789000000
O     2.848000000    -2.809000000    -3.394000000
H     3.035000000    -2.356000000    -4.217000000
H     1.951000000    -3.127000000    -3.495000000
O    -2.835000000     5.661000000     2.838000000
H    -3.577000000     6.199000000     3.116000000
H    -3.129000000     4.760000000     2.973000000
O    -5.976000000    -4.138000000     2.316000000
H    -5.200000000    -4.301000000     2.852000000
H    -5.811000000    -3.288000000     1.908000000
O     1.185000000    -3.558000000     1.526000000
H     0.895000000    -4.047000000     0.756000000
H     1.937000000    -3.051000000     1.219000000
O    -1.230000000    -1.327000000     5.784000000
H    -1.889000000    -1.178000000     5.106000000
H    -0.775000000    -2.121000000     5.505000000
O     3.636000000     4.113000000    -3.005000000
H     3.916000000     4.806000000    -2.407000000
H     4.207000000     3.373000000    -2.798000000
O    -4.826000000    -1.602000000     1.408000000
H    -5.516000000    -1.169000000     0.905000000
H    -4.214000000    -1.925000000     0.747000000
O    -2.502000000    -5.609000000     0.143000000
H    -2.147000000    -5.576000000    -0.745000000
H    -2.403000000    -4.716000000     0.474000000
O    -0.376000000     6.392000000     1.205000000
H    -0.083000000     7.222000000     1.580000000
H    -0.971000000     6.029000000     1.862000000
O     3.846000000    -5.079000000    -2.321000000
H     3.679000000    -5.579000000    -3.120000000
H     3.822000000    -4.164000000    -2.601000000
O     3.245000000     4.142000000     2.898000000
H     3.180000000     5.044000000     3.212000000
H     3.414000000     4.226000000     1.960000000
O     0.663000000     0.110000000    -5.886000000
H     1.173000000     0.920000000    -5.903000000
H     1.318000000    -0.584000000    -5.821000000
O     5.298000000     2.031000000    -2.634000000
H     5.050000000     1.193000000    -2.243000000
H     5.746000000     2.501000000    -1.931000000
O    -0.641000000     5.515000000     4.729000000
H    -0.034000000     4.868000000     4.370000000
H    -1.255000000     5.689000000     4.016000000
O     6.584000000    -0.497000000    -1.251000000
H     6.299000000    -0.301000000    -0.359000000
H     7.524000000    -0.318000000    -1.247000000
O     3.261000000    -5.690000000     1.475000000
H     2.893000000    -4.959000000     0.979000000
H     3.657000000    -5.282000000     2.245000000
O    -6.731000000     0.294000000     0.703000000
H    -6.767000000    -0.042000000    -0.192000000
H    -5.951000000     0.848000000     0.720000000
O     5.003000000     2.232000000     3.880000000
H     4.207000000     2.725000000     3.684000000
H     5.707000000     2.877000000     3.815000000
O     4.142000000     5.812000000     0.078000000
H     4.651000000     6.560000000     0.388000000
H     3.232000000     6.106000000     0.123000000
O    -6.815000000    -1.015000000    -1.685000000
H    -5.911000000    -1.251000000    -1.892000000
H    -7.316000000    -1.812000000    -1.858000000
O     0.029000000    -3.484000000    -3.322000000
H    -0.548000000    -3.148000000    -4.007000000
H    -0.472000000    -3.379000000    -2.513000000
O    -4.115000000    -1.814000000    -1.860000000
H    -3.981000000    -2.644000000    -1.403000000
H    -4.010000000    -2.030000000    -2.786000000
O    -1.728000000    -2.654000000    -5.421000000
H    -2.625000000    -2.597000000    -5.092000000
H    -1.696000000    -2.024000000    -6.141000000
O    -1.056000000    -3.646000000     3.289000000
H    -1.764000000    -3.018000000     3.432000000
H    -0.741000000    -3.454000000     2.406000000
O     1.628000000     3.143000000     4.591000000
H     2.229000000     3.382000000     3.886000000
H     1.104000000     2.428000000     4.228000000
O    -0.479000000    -6.770000000    -2.489000000
H     0.219000000    -7.185000000    -2.995000000
H    -0.024000000    -6.167000000    -1.902000000
O    -3.651000000    -7.587000000     1.858000000
H    -4.389000000    -7.430000000     1.269000000
H    -2.908000000    -7.164000000     1.428000000
