144
-2814.58231
O    -1.460000000     3.577000000    -2.836000000
H    -1.729000000     3.438000000    -1.928000000
H    -1.339000000     2.695000000    -3.188000000
O     2.738000000     7.022000000    -0.603000000
H     1.793000000     7.115000000    -0.483000000
H     3.119000000     7.437000000     0.170000000
O     3.169000000     2.670000000    -4.428000000
H     3.945000000     2.246000000    -4.792000000
H     3.515000000     3.321000000    -3.817000000
O    -4.492000000     1.763000000     4.176000000
H    -5.207000000     1.191000000     3.897000000
H    -4.442000000     2.434000000     3.496000000
O    -2.254000000    -3.894000000    -4.357000000
H    -2.888000000    -3.968000000    -3.644000000
H    -2.790000000    -3.817000000    -5.147000000
O    -4.984000000    -0.012000000     0.052000000
H    -4.551000000    -0.327000000    -0.741000000
H    -4.387000000     0.646000000     0.407000000
O     2.874000000    -0.387000000     1.529000000
H     3.028000000     0.479000000     1.906000000
H     1.924000000    -0.438000000     1.425000000
O     3.300000000     2.259000000     2.719000000
H     3.907000000     2.942000000     2.432000000
H     2.496000000     2.729000000     2.936000000
O     5.291000000     1.390000000    -2.363000000
H     5.527000000     2.297000000    -2.168000000
H     5.882000000     1.136000000    -3.072000000
O     1.060000000    -0.477000000    -4.786000000
H     0.956000000    -1.321000000    -5.226000000
H     1.909000000    -0.538000000    -4.348000000
O    -3.534000000     2.074000000     0.856000000
H    -4.102000000     2.636000000     1.382000000
H    -2.813000000     2.645000000     0.589000000
O     4.985000000     4.342000000     2.385000000
H     4.235000000     4.773000000     2.796000000
H     5.742000000     4.851000000     2.676000000
O    -6.487000000    -3.705000000     1.559000000
H    -7.127000000    -3.032000000     1.327000000
H    -6.840000000    -4.511000000     1.183000000
O     1.091000000     4.737000000    -3.811000000
H     0.283000000     4.259000000    -3.629000000
H     1.687000000     4.477000000    -3.109000000
O     1.156000000    -3.642000000     4.883000000
H     0.333000000    -3.266000000     4.568000000
H     1.834000000    -3.172000000     4.398000000
O    -1.112000000    -2.627000000     4.048000000
H    -1.509000000    -1.814000000     4.361000000
H    -1.322000000    -2.652000000     3.114000000
O    -0.009000000     6.581000000    -0.346000000
H    -0.924000000     6.797000000    -0.164000000
H     0.098000000     5.690000000    -0.013000000
O    -3.944000000    -7.830000000    -0.399000000
H    -4.210000000    -7.768000000    -1.316000000
H    -3.901000000    -6.921000000    -0.100000000
O     1.051000000    -0.163000000     6.107000000
H     0.379000000     0.519000000     6.127000000
H     0.746000000    -0.819000000     6.732000000
O    -2.727000000    -0.290000000     4.592000000
H    -3.239000000     0.514000000     4.494000000
H    -3.295000000    -0.978000000     4.246000000
O    -1.795000000     3.993000000     0.061000000
H    -1.049000000     3.988000000     0.661000000
H    -2.126000000     4.890000000     0.098000000
O    -1.499000000     0.696000000    -3.483000000
H    -0.629000000     0.343000000    -3.669000000
H    -1.736000000     0.314000000    -2.637000000
O     3.419000000    -4.469000000    -1.950000000
H     3.368000000    -3.735000000    -1.338000000
H     2.560000000    -4.889000000    -1.891000000
O    -0.778000000     2.124000000     5.598000000
H    -1.256000000     2.900000000     5.889000000
H    -1.428000000     1.421000000     5.617000000
O     3.215000000    -2.413000000     3.400000000
H     4.117000000    -2.283000000     3.695000000
H     3.033000000    -1.656000000     2.844000000
O    -0.403000000    -7.616000000    -1.999000000
H    -0.108000000    -6.709000000    -1.927000000
H    -1.068000000    -7.598000000    -2.688000000
O     5.636000000     0.303000000     0.244000000
H     5.479000000     0.953000000    -0.441000000
H     4.772000000    -0.062000000     0.430000000
O    -1.771000000    -0.531000000     7.534000000
H    -2.248000000     0.294000000     7.625000000
H    -2.038000000    -0.870000000     6.680000000
O    -3.125000000    -4.442000000     4.228000000
H    -2.538000000    -5.175000000     4.412000000
H    -2.548000000    -3.680000000     4.175000000
O     3.454000000     4.779000000    -2.193000000
H     3.069000000     5.538000000    -1.756000000
H     4.114000000     4.457000000    -1.579000000
O    -4.376000000    -1.728000000     2.562000000
H    -5.120000000    -1.919000000     1.990000000
H    -3.608000000    -1.980000000     2.048000000
O    -4.166000000    -5.180000000     0.466000000
H    -3.316000000    -4.966000000     0.851000000
H    -4.801000000    -4.741000000     1.032000000
O     0.003000000     4.955000000     2.028000000
H     0.401000000     4.280000000     2.577000000
H     0.068000000     5.756000000     2.548000000
O     0.793000000     2.231000000    -5.907000000
H     0.721000000     1.364000000    -5.508000000
H     1.400000000     2.706000000    -5.339000000
O     5.199000000     3.496000000    -0.281000000
H     6.073000000     3.699000000    -0.614000000
H     5.214000000     3.795000000     0.628000000
O     3.263000000    -2.847000000     0.038000000
H     3.335000000    -1.898000000     0.142000000
H     3.579000000    -3.203000000     0.868000000
O     1.453000000    -6.395000000     3.375000000
H     1.549000000    -5.667000000     3.989000000
H     0.956000000    -6.027000000     2.643000000
O     3.050000000     5.892000000     3.418000000
H     3.256000000     6.334000000     4.242000000
H     2.649000000     6.571000000     2.876000000
O     0.491000000    -5.048000000    -2.296000000
H     0.436000000    -4.277000000    -2.862000000
H    -0.049000000    -4.827000000    -1.537000000
O    -6.282000000     0.242000000     2.758000000
H    -5.457000000     0.024000000     2.323000000
H    -6.673000000     0.917000000     2.204000000
O    -3.869000000    -1.205000000    -2.273000000
H    -3.665000000    -0.960000000    -3.175000000
H    -3.537000000    -2.099000000    -2.187000000
O     0.137000000    -3.283000000    -5.245000000
H    -0.724000000    -3.392000000    -4.842000000
H     0.025000000    -3.607000000    -6.139000000
O    -0.429000000    -5.234000000     1.733000000
H    -0.973000000    -4.738000000     2.344000000
H    -0.688000000    -4.916000000     0.868000000
O     1.061000000     3.608000000     4.032000000
H     0.453000000     3.004000000     4.458000000
H     1.524000000     4.031000000     4.755000000
O    -0.179000000     8.104000000    -2.505000000
H     0.251000000     8.831000000    -2.054000000
H    -0.004000000     7.343000000    -1.952000000
O     3.599000000    -0.554000000    -3.115000000
H     3.973000000     0.033000000    -2.458000000
H     4.100000000    -1.364000000    -3.025000000
O    -3.457000000    -3.900000000    -1.935000000
H    -2.621000000    -3.809000000    -1.477000000
H    -4.055000000    -4.248000000    -1.274000000
O    -5.769000000    -4.625000000     4.447000000
H    -6.078000000    -4.358000000     3.582000000
H    -4.814000000    -4.613000000     4.375000000
