144
-2798.23016
O    -3.209000000     3.800000000     1.282000000
H    -3.593000000     2.958000000     1.036000000
H    -2.976000000     3.698000000     2.204000000
O    -0.636000000    -0.401000000     3.694000000
H     0.125000000    -0.521000000     3.125000000
H    -0.651000000     0.538000000     3.878000000
O     1.746000000    -4.171000000    -4.101000000
H     1.007000000    -3.775000000    -3.639000000
H     1.358000000    -4.887000000    -4.604000000
O     3.741000000    -1.079000000     2.896000000
H     4.414000000    -1.482000000     2.347000000
H     3.215000000    -1.815000000     3.209000000
O     6.223000000    -4.000000000    -3.049000000
H     5.321000000    -3.882000000    -2.752000000
H     6.304000000    -3.420000000    -3.806000000
O    -0.845000000     2.295000000    -3.621000000
H    -0.357000000     3.093000000    -3.825000000
H    -0.191000000     1.597000000    -3.661000000
O    -3.433000000     1.857000000    -5.515000000
H    -3.512000000     1.653000000    -4.583000000
H    -2.860000000     1.174000000    -5.863000000
O     4.000000000     4.273000000    -3.255000000
H     3.575000000     5.130000000    -3.228000000
H     3.584000000     3.776000000    -2.550000000
O     4.050000000    -5.776000000     0.408000000
H     3.134000000    -5.616000000     0.178000000
H     4.252000000    -6.624000000     0.012000000
O     4.184000000     6.266000000     3.405000000
H     3.621000000     5.844000000     2.756000000
H     5.073000000     6.113000000     3.085000000
O    -2.643000000     3.789000000     4.021000000
H    -2.303000000     3.520000000     4.874000000
H    -3.584000000     3.622000000     4.075000000
O    -2.067000000    -2.124000000    -4.540000000
H    -1.286000000    -2.355000000    -4.038000000
H    -2.731000000    -1.935000000    -3.877000000
O    -3.096000000     6.591000000     4.717000000
H    -3.719000000     6.127000000     5.276000000
H    -2.756000000     5.918000000     4.127000000
O     2.308000000    -3.163000000     3.697000000
H     1.581000000    -3.587000000     3.241000000
H     2.736000000    -3.872000000     4.176000000
O     1.722000000    -5.935000000    -1.393000000
H     0.840000000    -6.302000000    -1.336000000
H     1.588000000    -4.987000000    -1.388000000
O    -4.829000000     1.954000000    -2.797000000
H    -4.344000000     2.638000000    -2.335000000
H    -4.810000000     1.204000000    -2.203000000
O    -0.542000000    -7.308000000    -0.866000000
H    -1.142000000    -6.694000000    -0.442000000
H    -0.927000000    -7.461000000    -1.729000000
O    -0.209000000    -1.438000000     6.186000000
H    -0.077000000    -2.347000000     5.913000000
H    -0.385000000    -0.967000000     5.371000000
O    -4.740000000     1.313000000     0.125000000
H    -4.768000000     0.506000000     0.639000000
H    -5.553000000     1.767000000     0.347000000
O     0.309000000     0.314000000    -5.854000000
H    -0.118000000     0.154000000    -6.696000000
H     0.895000000     1.053000000    -6.020000000
O    -2.389000000     6.327000000     0.277000000
H    -1.688000000     6.519000000     0.900000000
H    -2.853000000     5.583000000     0.660000000
O     3.343000000     2.398000000     2.617000000
H     3.755000000     2.308000000     1.758000000
H     3.149000000     1.499000000     2.884000000
O    -4.876000000    -1.940000000    -2.056000000
H    -4.931000000    -1.503000000    -1.206000000
H    -4.555000000    -2.818000000    -1.853000000
O     2.269000000     3.304000000     4.877000000
H     2.931000000     3.322000000     4.185000000
H     1.924000000     2.411000000     4.854000000
O     2.117000000     0.580000000     4.385000000
H     2.684000000     0.037000000     3.837000000
H     2.158000000     0.173000000     5.250000000
O    -2.169000000    -3.486000000     1.943000000
H    -2.463000000    -3.406000000     2.851000000
H    -1.217000000    -3.394000000     1.991000000
O     1.187000000     6.914000000    -0.100000000
H     0.976000000     6.236000000     0.542000000
H     0.463000000     7.538000000    -0.035000000
O     4.059000000    -0.592000000    -3.855000000
H     3.104000000    -0.599000000    -3.918000000
H     4.274000000    -1.393000000    -3.378000000
O    -2.650000000    -5.651000000     0.049000000
H    -3.244000000    -6.284000000     0.451000000
H    -2.513000000    -4.987000000     0.725000000
O    -4.869000000    -1.859000000     0.838000000
H    -5.374000000    -2.515000000     1.318000000
H    -4.547000000    -1.263000000     1.515000000
O    -4.671000000     5.432000000    -2.740000000
H    -3.902000000     4.914000000    -2.502000000
H    -4.478000000     6.311000000    -2.412000000
O     0.463000000    -6.392000000    -5.261000000
H     0.085000000    -6.252000000    -6.129000000
H     1.280000000    -6.862000000    -5.428000000
O     3.571000000    -2.972000000    -2.444000000
H     2.979000000    -3.406000000    -3.057000000
H     3.034000000    -2.804000000    -1.669000000
O     3.816000000    -6.449000000    -3.368000000
H     3.772000000    -5.638000000    -3.875000000
H     3.556000000    -6.193000000    -2.483000000
O     1.306000000    -0.649000000    -3.406000000
H     0.917000000    -0.560000000    -4.276000000
H     0.880000000    -1.420000000    -3.031000000
O     2.047000000     1.387000000    -1.846000000
H     1.921000000     0.626000000    -2.414000000
H     1.410000000     1.268000000    -1.142000000
O     3.217000000    -3.043000000    -6.530000000
H     2.498000000    -3.361000000    -5.984000000
H     2.803000000    -2.813000000    -7.362000000
O    -3.740000000    -0.847000000     2.991000000
H    -2.820000000    -0.638000000     2.828000000
H    -3.717000000    -1.692000000     3.440000000
O     0.117000000     5.209000000     4.877000000
H    -0.338000000     4.738000000     5.576000000
H     0.899000000     4.685000000     4.706000000
O    -0.520000000     6.936000000     2.293000000
H    -1.247000000     7.291000000     2.804000000
H    -0.092000000     6.317000000     2.884000000
O     6.002000000    -1.570000000     1.400000000
H     5.753000000    -0.871000000     0.796000000
H     6.024000000    -2.359000000     0.858000000
O    -3.137000000    -4.042000000    -2.220000000
H    -2.284000000    -3.613000000    -2.294000000
H    -3.015000000    -4.701000000    -1.537000000
O    -2.690000000     3.717000000    -2.034000000
H    -1.897000000     3.494000000    -2.523000000
H    -2.451000000     3.585000000    -1.117000000
O     0.533000000    -4.657000000     2.557000000
H     0.616000000    -5.015000000     1.673000000
H     0.793000000    -5.377000000     3.133000000
O     2.187000000     6.213000000    -2.877000000
H     2.365000000     7.145000000    -3.003000000
H     1.523000000     6.187000000    -2.188000000
O     4.083000000     2.231000000    -0.241000000
H     3.461000000     1.931000000    -0.904000000
H     4.852000000     1.676000000    -0.366000000
O    -3.710000000    -3.908000000    -6.028000000
H    -3.366000000    -3.314000000    -5.361000000
H    -3.015000000    -4.555000000    -6.154000000
O     5.009000000     5.350000000     0.494000000
H     5.819000000     4.894000000     0.267000000
H     4.329000000     4.893000000    -0.002000000
