144
-2823.25888
O     3.795000000     3.510000000    -0.831000000
H     3.659000000     4.180000000    -0.161000000
H     4.367000000     2.866000000    -0.413000000
O     5.188000000    -3.015000000    -0.737000000
H     6.117000000    -2.919000000    -0.531000000
H     4.800000000    -3.368000000     0.064000000
O    -0.427000000    -4.277000000    -0.620000000
H    -0.728000000    -4.907000000    -1.275000000
H    -0.166000000    -3.510000000    -1.129000000
O    -4.367000000     0.299000000     3.470000000
H    -4.887000000    -0.045000000     4.196000000
H    -4.645000000    -0.214000000     2.711000000
O    -2.529000000     0.493000000    -3.713000000
H    -3.419000000     0.165000000    -3.580000000
H    -2.508000000     1.327000000    -3.243000000
O    -5.319000000     3.770000000    -6.365000000
H    -5.173000000     4.708000000    -6.240000000
H    -4.894000000     3.360000000    -5.611000000
O    -2.609000000    -2.772000000     6.473000000
H    -2.332000000    -3.644000000     6.754000000
H    -2.803000000    -2.871000000     5.541000000
O     3.543000000     0.550000000    -5.486000000
H     3.417000000     0.927000000    -4.615000000
H     3.571000000    -0.395000000    -5.337000000
O    -2.166000000    -2.869000000     1.300000000
H    -1.520000000    -3.500000000     0.982000000
H    -1.753000000    -2.016000000     1.169000000
O     4.654000000    -3.890000000     1.979000000
H     5.420000000    -3.371000000     2.223000000
H     4.107000000    -3.892000000     2.765000000
O     5.460000000    -6.315000000     0.703000000
H     5.956000000    -5.992000000    -0.050000000
H     5.002000000    -5.543000000     1.036000000
O    -3.353000000     1.321000000     6.053000000
H    -3.372000000     0.843000000     5.225000000
H    -3.647000000     2.204000000     5.827000000
O     2.879000000    -2.071000000     6.462000000
H     2.828000000    -1.290000000     7.013000000
H     1.968000000    -2.340000000     6.343000000
O     0.297000000     4.072000000    -5.326000000
H    -0.068000000     4.065000000    -4.441000000
H     0.774000000     4.901000000    -5.382000000
O     0.806000000    -4.083000000     3.945000000
H     0.690000000    -3.134000000     3.899000000
H     1.701000000    -4.199000000     4.264000000
O     1.178000000     2.404000000     1.537000000
H     0.764000000     1.675000000     1.075000000
H     2.016000000     2.052000000     1.837000000
O    -5.388000000     2.475000000    -2.145000000
H    -5.594000000     1.565000000    -2.358000000
H    -4.638000000     2.418000000    -1.552000000
O     5.342000000    -0.430000000    -1.590000000
H     5.340000000    -1.282000000    -1.155000000
H     5.441000000    -0.635000000    -2.520000000
O     3.425000000     1.162000000     2.188000000
H     4.305000000     1.229000000     1.816000000
H     3.526000000     0.575000000     2.937000000
O     0.327000000     1.475000000     4.099000000
H    -0.036000000     2.206000000     4.599000000
H     0.604000000     1.866000000     3.270000000
O    -0.204000000    -6.054000000     2.449000000
H     0.003000000    -6.062000000     1.514000000
H     0.196000000    -5.249000000     2.776000000
O    -3.275000000     5.668000000    -0.970000000
H    -3.101000000     6.283000000    -0.257000000
H    -2.414000000     5.317000000    -1.198000000
O    -5.348000000    -0.320000000    -2.587000000
H    -5.315000000    -0.757000000    -3.438000000
H    -4.846000000    -0.891000000    -2.006000000
O    -0.061000000     4.534000000     0.358000000
H    -0.408000000     5.028000000     1.101000000
H     0.172000000     3.681000000     0.726000000
O     3.206000000    -2.335000000    -5.649000000
H     3.500000000    -2.780000000    -6.444000000
H     3.707000000    -2.745000000    -4.945000000
O     0.349000000    -2.656000000    -2.444000000
H     1.005000000    -2.749000000    -3.134000000
H     0.135000000    -1.723000000    -2.441000000
O     4.116000000    -0.170000000     4.630000000
H     3.896000000    -0.514000000     5.496000000
H     4.868000000    -0.690000000     4.349000000
O     4.046000000    -5.009000000    -3.040000000
H     4.684000000    -5.147000000    -2.340000000
H     3.206000000    -5.251000000    -2.649000000
O     3.485000000    -4.113000000     4.790000000
H     3.530000000    -4.841000000     5.409000000
H     3.273000000    -3.352000000     5.330000000
O    -3.695000000    -2.798000000     3.827000000
H    -4.331000000    -2.996000000     3.139000000
H    -2.847000000    -2.823000000     3.383000000
O    -7.475000000     1.585000000     2.835000000
H    -7.473000000     0.964000000     3.563000000
H    -6.740000000     1.314000000     2.286000000
O    -5.800000000     5.967000000    -0.059000000
H    -6.077000000     5.309000000     0.579000000
H    -4.953000000     5.652000000    -0.375000000
O    -3.679000000     7.096000000    -3.563000000
H    -3.470000000     6.431000000    -2.907000000
H    -3.337000000     6.740000000    -4.383000000
O     0.571000000    -1.466000000    -6.119000000
H     0.768000000    -0.530000000    -6.146000000
H     1.420000000    -1.886000000    -5.982000000
O    -7.068000000     4.267000000     1.877000000
H    -7.092000000     3.366000000     2.201000000
H    -6.568000000     4.746000000     2.538000000
O    -3.069000000     2.560000000     2.700000000
H    -3.517000000     1.829000000     3.125000000
H    -3.147000000     2.376000000     1.763000000
O    -1.663000000    -2.014000000    -4.706000000
H    -0.921000000    -1.943000000    -5.306000000
H    -1.759000000    -1.136000000    -4.338000000
O    -4.462000000    -1.996000000    -0.657000000
H    -4.776000000    -2.811000000    -1.048000000
H    -3.772000000    -2.270000000    -0.053000000
O     3.268000000     1.151000000    -2.816000000
H     3.974000000     0.681000000    -2.374000000
H     3.201000000     1.982000000    -2.345000000
O     5.626000000     1.334000000     0.476000000
H     5.441000000     0.649000000    -0.166000000
H     6.453000000     1.068000000     0.877000000
O     6.494000000    -1.194000000     3.910000000
H     7.394000000    -1.177000000     3.583000000
H     6.543000000    -1.701000000     4.720000000
O     1.214000000    -1.283000000     4.547000000
H     2.133000000    -1.019000000     4.501000000
H     0.735000000    -0.462000000     4.668000000
O     0.195000000     1.320000000    -5.882000000
H     0.585000000     2.165000000    -5.659000000
H    -0.533000000     1.223000000    -5.268000000
O    -3.863000000     3.906000000    -3.939000000
H    -3.073000000     4.215000000    -3.495000000
H    -4.347000000     3.431000000    -3.264000000
O     1.720000000    -6.067000000    -1.424000000
H     2.019000000    -6.830000000    -0.929000000
H     1.106000000    -5.626000000    -0.836000000
O    -5.284000000     0.741000000     0.712000000
H    -4.477000000     1.236000000     0.571000000
H    -5.123000000    -0.105000000     0.293000000
O    -1.191000000     4.611000000    -2.417000000
H    -0.612000000     4.777000000    -1.672000000
H    -1.578000000     3.755000000    -2.234000000
O    -4.032000000     5.053000000     3.105000000
H    -3.680000000     4.164000000     3.060000000
H    -3.482000000     5.559000000     2.508000000
