144
-2812.26685
O    -2.218000000    -3.718000000    -1.367000000
H    -1.835000000    -3.618000000    -0.496000000
H    -3.160000000    -3.787000000    -1.208000000
O     0.527000000    -0.876000000     6.926000000
H     0.569000000    -1.645000000     6.357000000
H    -0.012000000    -0.250000000     6.443000000
O     0.710000000    -3.453000000    -1.169000000
H    -0.241000000    -3.410000000    -1.073000000
H     1.009000000    -2.561000000    -0.991000000
O     4.961000000    -3.934000000     2.217000000
H     4.745000000    -4.001000000     1.287000000
H     4.646000000    -4.755000000     2.596000000
O     0.417000000     1.005000000    -6.749000000
H     1.209000000     0.541000000    -6.478000000
H     0.039000000     1.331000000    -5.932000000
O     0.119000000     2.076000000    -4.213000000
H    -0.445000000     2.819000000    -4.432000000
H     0.737000000     2.425000000    -3.571000000
O     2.118000000    -2.088000000     4.727000000
H     1.343000000    -2.230000000     4.184000000
H     2.548000000    -1.327000000     4.337000000
O     4.232000000    -4.445000000    -5.048000000
H     5.091000000    -4.072000000    -4.850000000
H     3.640000000    -4.027000000    -4.424000000
O     3.901000000    -4.229000000    -0.290000000
H     3.959000000    -4.039000000    -1.227000000
H     3.481000000    -5.088000000    -0.246000000
O    -1.189000000    -1.071000000    -3.694000000
H    -1.612000000    -1.380000000    -2.894000000
H    -1.263000000    -0.117000000    -3.652000000
O     0.244000000     5.388000000    -2.421000000
H     0.571000000     5.333000000    -3.319000000
H    -0.504000000     4.791000000    -2.402000000
O     6.918000000     1.100000000     0.675000000
H     6.917000000     0.148000000     0.577000000
H     7.562000000     1.270000000     1.362000000
O    -3.063000000    -2.253000000     4.120000000
H    -2.998000000    -1.422000000     3.650000000
H    -3.923000000    -2.598000000     3.879000000
O    -0.705000000     0.603000000     4.489000000
H    -0.621000000     1.555000000     4.536000000
H    -1.192000000     0.445000000     3.680000000
O    -0.947000000     5.067000000     0.458000000
H    -0.033000000     4.794000000     0.380000000
H    -0.910000000     5.886000000     0.952000000
O    -4.837000000     1.911000000    -2.801000000
H    -4.703000000     2.347000000    -3.643000000
H    -5.319000000     1.113000000    -3.019000000
O     2.065000000     2.665000000     1.780000000
H     1.669000000     2.640000000     2.651000000
H     2.153000000     1.745000000     1.531000000
O     0.502000000    -5.745000000     1.142000000
H     1.261000000    -5.657000000     0.565000000
H     0.138000000    -6.604000000     0.929000000
O    -1.827000000     4.434000000    -4.929000000
H    -2.293000000     5.186000000    -4.564000000
H    -1.401000000     4.775000000    -5.715000000
O     1.903000000     3.062000000    -1.856000000
H     1.522000000     3.783000000    -1.354000000
H     2.670000000     2.796000000    -1.348000000
O    -6.029000000    -0.702000000    -0.236000000
H    -5.364000000    -0.217000000     0.253000000
H    -6.859000000    -0.440000000     0.163000000
O     4.141000000     4.577000000     2.230000000
H     4.002000000     4.034000000     1.454000000
H     3.302000000     4.557000000     2.690000000
O     2.026000000    -4.301000000    -3.338000000
H     1.438000000    -3.854000000    -3.947000000
H     1.668000000    -4.105000000    -2.472000000
O    -4.527000000     0.884000000     6.524000000
H    -4.533000000     0.368000000     5.717000000
H    -3.802000000     0.523000000     7.034000000
O    -5.940000000    -2.583000000     2.617000000
H    -6.801000000    -2.173000000     2.539000000
H    -5.843000000    -3.093000000     1.813000000
O     6.234000000    -2.705000000    -4.454000000
H     5.671000000    -2.031000000    -4.834000000
H     7.121000000    -2.445000000    -4.703000000
O     6.753000000     0.974000000    -2.053000000
H     7.450000000     0.418000000    -2.402000000
H     6.997000000     1.117000000    -1.138000000
O    -4.229000000    -2.694000000     6.739000000
H    -3.615000000    -3.156000000     7.309000000
H    -3.710000000    -2.454000000     5.972000000
O     2.814000000    -0.074000000    -5.451000000
H     2.767000000     0.643000000    -4.818000000
H     3.719000000    -0.058000000    -5.764000000
O    -6.249000000     4.386000000     3.684000000
H    -6.743000000     3.682000000     3.264000000
H    -5.993000000     4.026000000     4.533000000
O    -0.505000000    -3.039000000     3.938000000
H    -1.373000000    -2.634000000     3.951000000
H    -0.644000000    -3.915000000     4.297000000
O    -2.835000000     2.970000000     3.058000000
H    -3.248000000     2.134000000     2.842000000
H    -2.743000000     3.416000000     2.216000000
O     1.965000000     5.052000000     0.353000000
H     2.536000000     5.625000000     0.866000000
H     2.071000000     4.189000000     0.753000000
O     3.753000000     2.185000000    -3.992000000
H     3.144000000     2.319000000    -3.265000000
H     4.473000000     2.791000000    -3.815000000
O    -5.455000000     2.396000000     0.162000000
H    -5.357000000     2.190000000    -0.768000000
H    -4.786000000     1.867000000     0.596000000
O    -5.310000000    -0.067000000     3.469000000
H    -4.490000000     0.076000000     2.996000000
H    -5.645000000    -0.895000000     3.123000000
O     5.044000000     3.001000000    -0.148000000
H     5.513000000     3.295000000    -0.928000000
H     5.657000000     2.412000000     0.293000000
O    -5.915000000     5.340000000     0.732000000
H    -6.330000000     4.521000000     0.460000000
H    -5.541000000     5.145000000     1.591000000
O     0.816000000    -2.113000000    -5.449000000
H     0.093000000    -1.624000000    -5.057000000
H     1.548000000    -1.496000000    -5.455000000
O     1.717000000     3.105000000     4.486000000
H     1.321000000     2.808000000     5.305000000
H     2.193000000     3.900000000     4.725000000
O     5.726000000    -1.566000000     0.320000000
H     5.208000000    -1.418000000    -0.472000000
H     5.166000000    -2.109000000     0.874000000
O    -1.350000000    -3.472000000     1.118000000
H    -0.676000000    -2.792000000     1.130000000
H    -0.958000000    -4.205000000     1.592000000
O    -3.896000000     2.619000000    -5.453000000
H    -2.969000000     2.603000000    -5.212000000
H    -3.996000000     3.422000000    -5.965000000
O     3.593000000    -0.017000000     2.922000000
H     4.532000000    -0.156000000     3.045000000
H     3.430000000     0.850000000     3.294000000
O    -2.408000000     4.659000000    -1.853000000
H    -3.048000000     3.958000000    -1.976000000
H    -2.117000000     4.561000000    -0.946000000
O     6.091000000     3.375000000    -3.324000000
H     6.808000000     3.887000000    -2.949000000
H     6.252000000     2.481000000    -3.024000000
O    -2.347000000     4.431000000     5.277000000
H    -2.554000000     3.747000000     5.914000000
H    -2.628000000     4.068000000     4.437000000
O    -7.479000000     1.792000000     3.118000000
H    -7.696000000     1.612000000     2.204000000
H    -6.689000000     1.276000000     3.283000000
