144
-2807.99862
O    -1.219000000    -6.011000000    -4.319000000
H    -0.565000000    -5.736000000    -3.676000000
H    -1.649000000    -5.199000000    -4.586000000
O     4.435000000    -5.766000000    -1.065000000
H     5.275000000    -5.670000000    -0.616000000
H     3.794000000    -5.846000000    -0.358000000
O    -2.764000000     1.562000000     5.131000000
H    -3.418000000     0.873000000     5.007000000
H    -1.928000000     1.135000000     4.941000000
O     5.035000000    -0.770000000    -1.309000000
H     4.214000000    -0.287000000    -1.206000000
H     5.078000000    -0.970000000    -2.244000000
O     3.274000000    -6.354000000     2.152000000
H     3.265000000    -7.310000000     2.108000000
H     2.419000000    -6.122000000     2.515000000
O    -0.697000000    -4.481000000     2.318000000
H    -0.165000000    -5.133000000     2.774000000
H    -0.306000000    -3.641000000     2.560000000
O     1.186000000    -3.415000000     3.848000000
H     2.140000000    -3.371000000     3.920000000
H     0.872000000    -3.242000000     4.736000000
O    -2.924000000    -3.272000000     3.453000000
H    -2.760000000    -2.447000000     2.995000000
H    -2.415000000    -3.921000000     2.968000000
O    -4.183000000    -0.375000000    -1.205000000
H    -4.208000000     0.560000000    -1.409000000
H    -5.004000000    -0.718000000    -1.557000000
O     4.758000000    -1.182000000    -3.833000000
H     4.222000000    -0.727000000    -4.483000000
H     4.715000000    -2.103000000    -4.091000000
O     0.248000000     0.958000000    -4.611000000
H     0.538000000     1.630000000    -3.994000000
H    -0.417000000     1.393000000    -5.144000000
O    -0.835000000    -0.280000000     4.618000000
H    -0.896000000    -1.233000000     4.684000000
H     0.046000000    -0.074000000     4.929000000
O    -3.783000000     0.008000000    -6.108000000
H    -3.125000000    -0.373000000    -6.689000000
H    -3.733000000    -0.518000000    -5.310000000
O    -2.369000000    -1.128000000     2.028000000
H    -1.483000000    -0.786000000     2.146000000
H    -2.865000000    -0.391000000     1.672000000
O    -5.015000000     5.895000000     0.871000000
H    -5.432000000     6.162000000     0.052000000
H    -4.144000000     6.289000000     0.837000000
O     1.212000000     3.206000000    -3.228000000
H     0.741000000     3.814000000    -2.658000000
H     1.409000000     3.718000000    -4.013000000
O    -2.857000000    -4.090000000    -5.001000000
H    -3.589000000    -4.448000000    -4.498000000
H    -2.923000000    -3.143000000    -4.878000000
O    -4.067000000     2.420000000    -2.443000000
H    -4.766000000     2.860000000    -1.961000000
H    -3.275000000     2.602000000    -1.938000000
O     6.143000000    -3.452000000     1.682000000
H     5.635000000    -2.763000000     1.255000000
H     7.023000000    -3.084000000     1.765000000
O    -4.874000000     6.239000000     3.823000000
H    -3.920000000     6.263000000     3.749000000
H    -5.179000000     6.055000000     2.934000000
O    -6.149000000     0.809000000    -3.208000000
H    -6.564000000     1.488000000    -3.740000000
H    -5.340000000     1.213000000    -2.893000000
O    -0.560000000    -1.622000000    -6.048000000
H    -1.312000000    -1.259000000    -6.517000000
H    -0.219000000    -0.888000000    -5.537000000
O    -2.847000000    -2.561000000    -0.314000000
H    -3.097000000    -1.834000000    -0.884000000
H    -2.726000000    -2.159000000     0.547000000
O     0.614000000    -4.296000000    -2.838000000
H     0.373000000    -3.400000000    -2.602000000
H     1.555000000    -4.252000000    -3.011000000
O    -4.194000000    -0.571000000     4.640000000
H    -4.700000000    -1.382000000     4.597000000
H    -4.121000000    -0.287000000     3.728000000
O     2.617000000    -0.013000000     4.398000000
H     2.251000000     0.623000000     5.013000000
H     2.663000000    -0.828000000     4.896000000
O    -3.502000000    -1.466000000    -3.706000000
H    -4.095000000    -2.176000000    -3.461000000
H    -3.390000000    -0.959000000    -2.902000000
O    -3.527000000     3.255000000     2.768000000
H    -2.983000000     3.259000000     3.556000000
H    -2.901000000     3.273000000     2.044000000
O    -2.688000000     7.364000000     0.288000000
H    -1.815000000     7.733000000     0.155000000
H    -2.914000000     6.974000000    -0.557000000
O     2.635000000    -0.151000000    -5.743000000
H     1.705000000    -0.016000000    -5.563000000
H     2.658000000    -0.908000000    -6.328000000
O     4.427000000     0.460000000     2.436000000
H     4.068000000     0.954000000     1.699000000
H     3.679000000     0.319000000     3.016000000
O     1.721000000     1.547000000     6.248000000
H     2.377000000     1.891000000     6.855000000
H     0.932000000     1.445000000     6.780000000
O     0.500000000     5.025000000     2.220000000
H    -0.224000000     4.598000000     1.762000000
H     0.942000000     4.314000000     2.685000000
O     3.080000000     2.461000000     1.025000000
H     2.235000000     2.170000000     0.684000000
H     2.873000000     2.862000000     1.869000000
O     0.127000000     5.220000000    -1.693000000
H    -0.479000000     4.650000000    -1.219000000
H    -0.240000000     6.098000000    -1.590000000
O     2.218000000     3.463000000     3.591000000
H     2.243000000     2.819000000     4.298000000
H     2.594000000     4.255000000     3.975000000
O    -1.859000000    -5.055000000    -0.490000000
H    -2.226000000    -4.179000000    -0.370000000
H    -1.234000000    -5.153000000     0.229000000
O     0.137000000    -6.819000000    -1.542000000
H    -0.765000000    -6.554000000    -1.362000000
H     0.576000000    -6.011000000    -1.808000000
O    -2.818000000     5.652000000    -4.151000000
H    -1.887000000     5.670000000    -4.372000000
H    -3.153000000     4.871000000    -4.591000000
O    -1.953000000     2.097000000    -6.037000000
H    -2.434000000     2.776000000    -6.510000000
H    -2.630000000     1.494000000    -5.729000000
O    -5.626000000     2.355000000     4.426000000
H    -4.853000000     2.650000000     3.944000000
H    -5.818000000     3.072000000     5.031000000
O     2.612000000     1.164000000    -1.697000000
H     2.522000000     1.463000000    -2.602000000
H     1.791000000     0.707000000    -1.512000000
O     2.148000000     7.368000000     1.974000000
H     2.850000000     7.123000000     1.370000000
H     1.540000000     6.629000000     1.947000000
O    -4.163000000     0.767000000     1.872000000
H    -4.391000000     0.982000000     0.968000000
H    -4.164000000     1.610000000     2.326000000
O     3.377000000    -3.996000000    -3.012000000
H     3.621000000    -4.651000000    -2.358000000
H     4.203000000    -3.755000000    -3.429000000
O    -2.009000000     6.428000000     3.773000000
H    -1.566000000     6.629000000     4.598000000
H    -1.407000000     5.843000000     3.314000000
O    -5.357000000     2.971000000     0.040000000
H    -6.225000000     3.294000000    -0.203000000
H    -4.953000000     3.701000000     0.509000000
O    -3.438000000     5.361000000    -1.565000000
H    -3.221000000     5.339000000    -2.497000000
H    -2.928000000     4.647000000    -1.183000000
