144
-2801.53805
O     0.951000000    -5.475000000    -1.235000000
H     0.399000000    -5.715000000    -0.492000000
H     0.760000000    -4.549000000    -1.386000000
O     6.423000000    -1.945000000     1.128000000
H     6.616000000    -2.014000000     2.063000000
H     5.925000000    -2.737000000     0.927000000
O     5.205000000     3.240000000    -1.954000000
H     4.251000000     3.289000000    -1.884000000
H     5.387000000     2.311000000    -2.092000000
O    -7.985000000     0.020000000     0.231000000
H    -7.466000000    -0.714000000     0.560000000
H    -8.408000000    -0.320000000    -0.557000000
O     3.548000000    -5.743000000    -0.420000000
H     3.164000000    -6.456000000     0.090000000
H     2.802000000    -5.331000000    -0.854000000
O     1.639000000    -0.914000000     4.525000000
H     0.959000000    -0.510000000     5.065000000
H     2.053000000    -0.179000000     4.072000000
O    -3.232000000    -1.148000000     6.431000000
H    -3.523000000    -1.154000000     5.519000000
H    -3.965000000    -0.766000000     6.914000000
O    -1.831000000     1.972000000    -6.035000000
H    -1.980000000     1.457000000    -5.243000000
H    -2.044000000     2.870000000    -5.781000000
O     5.492000000    -4.449000000     1.062000000
H     5.542000000    -4.805000000     1.949000000
H     4.731000000    -4.880000000     0.673000000
O    -1.443000000    -0.845000000    -4.392000000
H    -1.752000000    -1.392000000    -3.669000000
H    -2.114000000    -0.941000000    -5.068000000
O     2.746000000     4.122000000    -1.826000000
H     2.463000000     4.944000000    -1.426000000
H     1.939000000     3.722000000    -2.147000000
O     5.789000000     0.592000000    -2.449000000
H     6.529000000     0.025000000    -2.665000000
H     5.041000000     0.185000000    -2.886000000
O     2.835000000    -0.109000000    -6.007000000
H     3.433000000     0.571000000    -5.696000000
H     2.158000000     0.369000000    -6.487000000
O     1.885000000     0.526000000     7.532000000
H     1.923000000    -0.430000000     7.537000000
H     1.446000000     0.745000000     6.710000000
O    -4.063000000    -0.761000000     3.799000000
H    -3.879000000    -0.015000000     3.229000000
H    -4.282000000    -1.474000000     3.198000000
O    -1.693000000     2.517000000     4.058000000
H    -1.390000000     3.132000000     3.391000000
H    -2.133000000     1.825000000     3.564000000
O    -0.736000000     5.721000000    -1.340000000
H    -0.720000000     4.863000000    -1.763000000
H    -0.484000000     6.334000000    -2.031000000
O     0.158000000     3.627000000    -2.760000000
H    -0.738000000     3.309000000    -2.876000000
H     0.502000000     3.703000000    -3.650000000
O     0.452000000    -3.640000000     3.895000000
H     0.957000000    -2.843000000     4.059000000
H     0.010000000    -3.476000000     3.062000000
O    -3.377000000    -1.584000000    -2.582000000
H    -3.945000000    -1.979000000    -3.244000000
H    -3.979000000    -1.146000000    -1.980000000
O    -4.890000000    -0.075000000    -0.802000000
H    -4.276000000     0.511000000    -0.359000000
H    -5.631000000     0.484000000    -1.033000000
O     4.937000000     0.430000000     1.912000000
H     5.584000000     0.822000000     2.498000000
H     5.410000000    -0.277000000     1.473000000
O     1.179000000     2.796000000     5.364000000
H     1.474000000     2.464000000     4.516000000
H     0.678000000     3.583000000     5.152000000
O    -3.907000000     5.438000000     2.849000000
H    -3.274000000     5.494000000     2.133000000
H    -3.476000000     5.873000000     3.584000000
O    -5.490000000     2.215000000    -2.854000000
H    -5.129000000     2.955000000    -3.343000000
H    -6.190000000     2.596000000    -2.324000000
O    -2.998000000    -3.930000000     3.001000000
H    -2.718000000    -3.181000000     2.475000000
H    -2.281000000    -4.559000000     2.922000000
O     4.460000000    -2.568000000    -2.697000000
H     5.084000000    -3.141000000    -2.252000000
H     3.700000000    -2.544000000    -2.116000000
O     0.841000000    -4.844000000    -4.999000000
H     0.086000000    -4.259000000    -5.064000000
H     0.803000000    -5.184000000    -4.105000000
O     5.479000000    -2.534000000     4.177000000
H     4.655000000    -2.331000000     4.619000000
H     5.429000000    -3.472000000     3.994000000
O    -1.624000000    -3.737000000    -1.519000000
H    -2.051000000    -2.919000000    -1.772000000
H    -2.308000000    -4.401000000    -1.606000000
O    -6.134000000     5.653000000    -1.057000000
H    -5.732000000     5.118000000    -0.373000000
H    -7.037000000     5.775000000    -0.766000000
O    -3.586000000     2.819000000     5.841000000
H    -4.220000000     2.411000000     5.251000000
H    -2.799000000     2.929000000     5.308000000
O    -1.642000000     5.963000000     1.293000000
H    -1.279000000     5.750000000     0.433000000
H    -1.111000000     5.459000000     1.909000000
O     3.942000000    -2.645000000    -6.048000000
H     3.808000000    -3.109000000    -5.221000000
H     3.609000000    -1.763000000    -5.883000000
O     5.252000000     3.174000000     1.563000000
H     5.623000000     3.565000000     0.772000000
H     5.082000000     2.263000000     1.323000000
O    -4.766000000     3.890000000     0.419000000
H    -4.265000000     3.162000000     0.051000000
H    -4.388000000     4.025000000     1.288000000
O     0.616000000    -1.595000000    -6.091000000
H     0.084000000    -1.285000000    -5.358000000
H     1.492000000    -1.254000000    -5.912000000
O     1.799000000     2.703000000     0.423000000
H     2.468000000     3.003000000    -0.192000000
H     1.065000000     2.438000000    -0.131000000
O    -0.066000000     4.216000000     2.601000000
H     0.452000000     4.695000000     3.248000000
H     0.572000000     3.670000000     2.141000000
O     8.457000000    -1.041000000    -1.083000000
H     7.870000000    -0.735000000    -0.391000000
H     8.588000000    -1.970000000    -0.892000000
O    -0.720000000    -3.195000000     1.129000000
H    -0.999000000    -3.571000000     0.294000000
H    -0.673000000    -2.253000000     0.963000000
O    -7.724000000     2.606000000    -1.582000000
H    -7.898000000     1.896000000    -0.964000000
H    -8.099000000     3.383000000    -1.167000000
O     2.355000000     1.745000000     2.958000000
H     3.243000000     1.531000000     2.674000000
H     1.904000000     2.010000000     2.156000000
O    -0.581000000     0.433000000     5.885000000
H    -0.650000000     1.148000000     5.252000000
H    -1.451000000     0.035000000     5.894000000
O    -2.836000000     4.422000000    -5.100000000
H    -3.581000000     4.285000000    -4.516000000
H    -2.804000000     5.371000000    -5.228000000
O    -3.587000000    -1.747000000     1.067000000
H    -3.743000000    -2.519000000     0.522000000
H    -4.250000000    -1.117000000     0.785000000
O    -5.017000000     2.188000000     3.450000000
H    -4.276000000     1.814000000     2.973000000
H    -5.708000000     2.269000000     2.793000000
O    -2.579000000     3.520000000    -1.538000000
H    -3.241000000     4.189000000    -1.360000000
H    -2.838000000     2.777000000    -0.992000000
