144
-2803.79288
O     4.654000000    -3.684000000    -5.047000000
H     4.308000000    -2.951000000    -4.537000000
H     4.092000000    -4.423000000    -4.817000000
O     4.673000000     2.608000000     1.899000000
H     5.152000000     2.223000000     1.165000000
H     4.605000000     3.537000000     1.680000000
O    -3.877000000    -1.125000000     1.649000000
H    -4.288000000    -0.884000000     2.479000000
H    -4.137000000    -0.432000000     1.043000000
O     5.874000000    -3.132000000     0.845000000
H     5.793000000    -3.543000000     1.706000000
H     5.738000000    -2.199000000     1.011000000
O     2.954000000    -0.568000000     3.853000000
H     2.603000000     0.301000000     3.656000000
H     2.197000000    -1.068000000     4.158000000
O    -0.171000000     7.706000000    -0.188000000
H    -0.627000000     7.865000000    -1.014000000
H    -0.463000000     6.835000000     0.083000000
O    -5.006000000    -3.652000000     0.000000000
H    -4.599000000    -2.786000000    -0.030000000
H    -5.733000000    -3.597000000    -0.620000000
O    -1.041000000    -4.703000000     0.805000000
H    -0.276000000    -5.093000000     1.227000000
H    -1.306000000    -3.997000000     1.395000000
O     2.633000000    -4.682000000     4.381000000
H     2.903000000    -4.157000000     5.135000000
H     1.920000000    -4.181000000     3.983000000
O     4.961000000    -4.972000000    -0.717000000
H     4.230000000    -4.694000000    -1.268000000
H     5.292000000    -4.160000000    -0.331000000
O    -3.374000000     6.938000000     1.485000000
H    -4.010000000     6.412000000     1.969000000
H    -3.126000000     7.634000000     2.094000000
O     4.318000000    -1.606000000    -3.084000000
H     4.169000000    -2.295000000    -2.437000000
H     3.658000000    -0.942000000    -2.883000000
O    -3.662000000     1.132000000    -2.785000000
H    -3.660000000     1.273000000    -1.838000000
H    -3.884000000     1.987000000    -3.154000000
O    -1.450000000    -2.368000000     1.837000000
H    -2.350000000    -2.042000000     1.846000000
H    -0.994000000    -1.795000000     1.221000000
O     0.747000000    -5.984000000     2.214000000
H     1.622000000    -6.343000000     2.067000000
H     0.174000000    -6.751000000     2.233000000
O     2.782000000    -4.266000000    -2.299000000
H     1.864000000    -4.046000000    -2.456000000
H     3.004000000    -4.881000000    -2.997000000
O    -5.720000000     1.728000000     1.512000000
H    -6.418000000     1.767000000     0.857000000
H    -4.914000000     1.669000000     1.000000000
O     7.285000000    -0.494000000     0.962000000
H     7.219000000    -0.466000000     0.008000000
H     8.098000000    -0.028000000     1.160000000
O     6.779000000    -2.142000000    -3.576000000
H     6.878000000    -3.054000000    -3.303000000
H     5.836000000    -1.979000000    -3.531000000
O     5.694000000     2.145000000    -0.749000000
H     5.601000000     2.253000000    -1.696000000
H     6.115000000     1.292000000    -0.646000000
O    -7.070000000     1.508000000    -0.714000000
H    -7.214000000     2.380000000    -1.082000000
H    -7.036000000     0.929000000    -1.475000000
O    -6.606000000     0.343000000    -3.279000000
H    -6.785000000     1.246000000    -3.542000000
H    -5.659000000     0.319000000    -3.136000000
O    -4.539000000     3.962000000    -2.838000000
H    -5.426000000     4.091000000    -3.174000000
H    -4.627000000     4.050000000    -1.889000000
O     0.139000000    -3.750000000     3.651000000
H    -0.481000000    -3.324000000     3.059000000
H     0.244000000    -4.632000000     3.294000000
O    -0.533000000    -4.758000000    -1.942000000
H    -0.888000000    -4.619000000    -1.064000000
H    -0.336000000    -5.694000000    -1.975000000
O    -5.012000000     2.314000000     4.205000000
H    -5.675000000     2.913000000     4.549000000
H    -5.109000000     2.370000000     3.255000000
O     2.750000000     2.427000000    -1.645000000
H     3.617000000     2.730000000    -1.913000000
H     2.619000000     2.812000000    -0.778000000
O     1.608000000    -2.304000000    -4.664000000
H     2.235000000    -1.686000000    -4.289000000
H     0.766000000    -1.851000000    -4.617000000
O    -0.303000000     1.280000000     5.049000000
H    -0.787000000     1.759000000     4.376000000
H     0.566000000     1.681000000     5.049000000
O     0.399000000     4.138000000     3.254000000
H    -0.243000000     4.294000000     3.946000000
H     0.194000000     4.792000000     2.585000000
O     0.357000000     2.517000000    -3.014000000
H    -0.068000000     3.328000000    -2.736000000
H     1.135000000     2.452000000    -2.460000000
O     3.671000000     4.728000000     0.712000000
H     2.758000000     4.746000000     0.427000000
H     4.158000000     5.107000000    -0.020000000
O    -4.172000000     6.790000000    -1.227000000
H    -4.012000000     5.872000000    -1.448000000
H    -3.829000000     6.886000000    -0.339000000
O    -1.237000000     5.310000000     0.774000000
H    -2.086000000     5.736000000     0.895000000
H    -1.443000000     4.377000000     0.723000000
O    -1.575000000    -4.854000000    -4.426000000
H    -2.110000000    -4.060000000    -4.431000000
H    -1.051000000    -4.784000000    -3.628000000
O    -2.113000000     2.559000000     3.271000000
H    -2.220000000     2.511000000     2.321000000
H    -2.947000000     2.905000000     3.589000000
O     2.522000000     0.255000000    -3.730000000
H     2.832000000     0.853000000    -4.411000000
H     2.412000000     0.809000000    -2.957000000
O    -8.051000000     2.157000000     2.756000000
H    -8.427000000     1.311000000     2.516000000
H    -7.163000000     2.134000000     2.399000000
O    -4.817000000    -0.319000000     3.938000000
H    -4.479000000     0.554000000     4.134000000
H    -5.735000000    -0.287000000     4.208000000
O    -3.301000000    -0.480000000    -5.008000000
H    -3.386000000    -1.381000000    -4.694000000
H    -3.410000000     0.058000000    -4.225000000
O    -0.252000000    -0.581000000    -4.185000000
H    -0.950000000    -0.439000000    -3.546000000
H     0.340000000     0.160000000    -4.062000000
O    -1.042000000     5.123000000    -2.727000000
H    -1.461000000     4.741000000    -3.498000000
H    -1.111000000     6.068000000    -2.861000000
O     5.728000000    -0.936000000     3.414000000
H     4.810000000    -0.866000000     3.675000000
H     5.791000000    -0.413000000     2.615000000
O     1.287000000     5.141000000    -0.440000000
H     0.851000000     5.299000000    -1.277000000
H     0.575000000     5.100000000     0.197000000
O     2.335000000     2.278000000     3.845000000
H     1.634000000     2.908000000     3.678000000
H     3.003000000     2.484000000     3.191000000
O    -5.230000000     5.197000000     2.674000000
H    -6.166000000     5.079000000     2.835000000
H    -4.838000000     5.231000000     3.546000000
O     3.907000000    -6.596000000     1.482000000
H     4.027000000    -6.154000000     0.641000000
H     4.164000000    -5.945000000     2.134000000
O    -4.817000000     4.022000000    -0.194000000
H    -4.279000000     3.234000000    -0.114000000
H    -4.885000000     4.357000000     0.700000000
