144
-2801.80745
O     5.382000000    -3.873000000     0.323000000
H     4.731000000    -4.170000000     0.959000000
H     4.866000000    -3.469000000    -0.375000000
O     4.883000000    -3.856000000     5.274000000
H     4.394000000    -4.597000000     4.916000000
H     4.937000000    -3.232000000     4.549000000
O     5.574000000     5.146000000    -1.267000000
H     6.094000000     4.692000000    -0.604000000
H     4.671000000     4.887000000    -1.082000000
O    -0.635000000     1.152000000     2.645000000
H    -0.278000000     1.216000000     1.759000000
H    -0.502000000     2.022000000     3.020000000
O    -6.804000000     0.668000000    -3.131000000
H    -6.164000000     1.348000000    -2.920000000
H    -6.361000000     0.114000000    -3.775000000
O     0.245000000    -5.264000000     0.824000000
H     0.770000000    -5.973000000     0.453000000
H     0.455000000    -5.273000000     1.758000000
O     2.181000000    -2.582000000     4.674000000
H     2.594000000    -2.122000000     5.405000000
H     2.820000000    -2.524000000     3.963000000
O     4.612000000    -2.047000000     3.182000000
H     4.868000000    -1.190000000     2.840000000
H     4.440000000    -2.575000000     2.403000000
O     2.192000000     5.101000000     1.515000000
H     2.185000000     6.058000000     1.476000000
H     1.305000000     4.866000000     1.789000000
O     3.254000000    -4.560000000     1.891000000
H     3.833000000    -5.257000000     2.200000000
H     2.413000000    -4.745000000     2.309000000
O     6.218000000    -0.158000000    -2.714000000
H     5.749000000     0.448000000    -2.140000000
H     6.884000000     0.382000000    -3.139000000
O    -3.260000000    -1.021000000    -5.692000000
H    -3.431000000    -1.925000000    -5.955000000
H    -3.517000000    -0.987000000    -4.770000000
O    -1.514000000    -4.436000000    -1.232000000
H    -2.365000000    -4.222000000    -0.849000000
H    -0.986000000    -4.735000000    -0.491000000
O    -5.760000000     3.766000000    -4.485000000
H    -5.358000000     3.498000000    -3.659000000
H    -6.517000000     4.291000000    -4.223000000
O    -3.433000000     5.788000000    -5.228000000
H    -2.984000000     5.698000000    -4.388000000
H    -3.965000000     4.995000000    -5.301000000
O     0.903000000    -4.823000000     3.695000000
H    -0.023000000    -4.594000000     3.775000000
H     1.351000000    -4.215000000     4.283000000
O     4.098000000    -2.515000000    -1.593000000
H     3.676000000    -2.921000000    -2.350000000
H     3.973000000    -1.575000000    -1.724000000
O    -0.705000000     3.473000000    -6.554000000
H     0.066000000     3.842000000    -6.122000000
H    -0.911000000     2.688000000    -6.047000000
O     5.379000000    -0.435000000     0.968000000
H     4.946000000     0.393000000     1.174000000
H     5.688000000    -0.327000000     0.069000000
O    -6.480000000    -2.278000000    -2.494000000
H    -6.684000000    -2.178000000    -3.424000000
H    -5.615000000    -1.880000000    -2.395000000
O     2.262000000     1.775000000    -4.618000000
H     2.067000000     0.844000000    -4.516000000
H     1.962000000     2.174000000    -3.802000000
O    -4.234000000    -2.589000000     2.388000000
H    -4.068000000    -1.649000000     2.323000000
H    -3.709000000    -2.874000000     3.137000000
O    -0.533000000    -1.044000000     4.576000000
H    -0.554000000    -0.145000000     4.251000000
H     0.393000000    -1.286000000     4.552000000
O     5.208000000     0.691000000     5.239000000
H     4.540000000     0.845000000     4.571000000
H     6.038000000     0.838000000     4.785000000
O    -3.833000000     2.058000000     0.786000000
H    -4.138000000     1.404000000     0.157000000
H    -3.447000000     1.545000000     1.497000000
O     3.730000000    -1.405000000     6.678000000
H     4.309000000    -1.451000000     7.438000000
H     3.949000000    -0.572000000     6.260000000
O     4.952000000     2.035000000    -1.243000000
H     5.486000000     2.783000000    -1.510000000
H     4.049000000     2.331000000    -1.362000000
O     1.943000000    -0.842000000    -3.832000000
H     2.400000000    -1.592000000    -4.212000000
H     1.180000000    -1.222000000    -3.397000000
O    -2.986000000    -0.006000000     2.597000000
H    -2.087000000     0.179000000     2.868000000
H    -3.512000000     0.661000000     3.040000000
O     1.055000000     3.822000000    -2.850000000
H     0.203000000     3.526000000    -2.531000000
H     0.944000000     4.762000000    -2.992000000
O    -2.993000000    -3.417000000     4.447000000
H    -2.202000000    -2.882000000     4.516000000
H    -2.784000000    -4.218000000     4.927000000
O     3.883000000     4.220000000     3.559000000
H     3.716000000     4.798000000     4.304000000
H     3.231000000     4.476000000     2.906000000
O    -1.789000000     8.230000000    -2.263000000
H    -1.877000000     7.277000000    -2.275000000
H    -2.113000000     8.489000000    -1.400000000
O    -0.399000000    -1.631000000     7.942000000
H    -0.342000000    -1.180000000     7.100000000
H    -1.176000000    -1.259000000     8.361000000
O    -0.562000000     4.064000000     0.663000000
H    -1.428000000     4.279000000     1.010000000
H    -0.736000000     3.458000000    -0.057000000
O    -3.968000000    -0.841000000    -2.701000000
H    -4.331000000    -0.830000000    -1.815000000
H    -3.484000000    -0.018000000    -2.771000000
O    -5.164000000    -0.468000000    -0.255000000
H    -5.688000000    -0.318000000     0.531000000
H    -5.132000000    -1.421000000    -0.344000000
O    -3.892000000    -3.694000000    -0.125000000
H    -4.047000000    -3.450000000     0.787000000
H    -4.661000000    -4.209000000    -0.370000000
O    -4.192000000     2.787000000    -7.024000000
H    -4.726000000     2.099000000    -7.422000000
H    -3.855000000     2.393000000    -6.219000000
O     0.075000000    -2.073000000    -2.348000000
H     0.275000000    -1.664000000    -1.506000000
H    -0.454000000    -2.838000000    -2.122000000
O    -0.430000000     6.850000000    -0.102000000
H    -1.131000000     7.492000000     0.010000000
H    -0.780000000     6.045000000     0.281000000
O    -1.347000000     0.875000000    -5.151000000
H    -2.047000000     0.319000000    -5.492000000
H    -1.439000000     0.820000000    -4.200000000
O    -4.557000000     2.567000000    -2.359000000
H    -3.747000000     2.077000000    -2.501000000
H    -4.296000000     3.305000000    -1.808000000
O     3.112000000     4.138000000    -1.025000000
H     2.420000000     4.012000000    -1.674000000
H     2.648000000     4.211000000    -0.191000000
O     3.146000000     1.717000000     3.705000000
H     3.533000000     2.562000000     3.477000000
H     2.440000000     1.933000000     4.315000000
O    -3.126000000     6.124000000     0.077000000
H    -3.574000000     5.280000000     0.133000000
H    -3.584000000     6.681000000     0.706000000
O    -5.464000000     4.777000000    -0.788000000
H    -5.665000000     3.910000000    -0.436000000
H    -6.268000000     5.280000000    -0.660000000
O    -2.136000000     5.315000000    -2.699000000
H    -1.780000000     4.435000000    -2.576000000
H    -2.654000000     5.476000000    -1.910000000
