144
-2799.73210
O     4.345000000    -1.784000000     2.878000000
H     4.708000000    -1.149000000     2.261000000
H     4.724000000    -1.541000000     3.723000000
O    -7.300000000     2.454000000    -1.968000000
H    -7.652000000     1.682000000    -1.524000000
H    -7.094000000     3.064000000    -1.260000000
O    -0.207000000    -2.773000000     3.344000000
H    -0.543000000    -1.959000000     3.717000000
H     0.697000000    -2.825000000     3.655000000
O    -4.106000000    -1.967000000     3.001000000
H    -4.010000000    -1.055000000     2.729000000
H    -4.996000000    -2.022000000     3.347000000
O    -0.795000000    -5.385000000     3.496000000
H    -0.570000000    -4.455000000     3.483000000
H     0.045000000    -5.836000000     3.411000000
O     4.327000000    -4.042000000     0.680000000
H     4.369000000    -3.358000000     1.348000000
H     5.054000000    -3.846000000     0.090000000
O    -0.510000000    -0.615000000     5.193000000
H    -0.849000000     0.263000000     5.018000000
H     0.305000000    -0.466000000     5.672000000
O    -0.674000000    -5.829000000    -0.176000000
H     0.177000000    -6.258000000    -0.259000000
H    -0.475000000    -4.894000000    -0.201000000
O    -3.738000000    -3.824000000     0.734000000
H    -4.140000000    -3.278000000     1.409000000
H    -2.806000000    -3.609000000     0.776000000
O    -2.640000000    -2.704000000    -4.448000000
H    -3.279000000    -2.439000000    -3.787000000
H    -2.535000000    -3.646000000    -4.316000000
O     3.574000000    -2.856000000    -3.432000000
H     3.422000000    -2.837000000    -4.376000000
H     3.599000000    -3.787000000    -3.212000000
O    -4.591000000     0.505000000    -1.493000000
H    -4.107000000     0.892000000    -0.763000000
H    -5.197000000     1.192000000    -1.769000000
O    -1.027000000    -3.100000000     0.532000000
H    -0.974000000    -3.068000000     1.487000000
H    -0.695000000    -2.249000000     0.245000000
O    -6.633000000     4.510000000    -0.407000000
H    -5.706000000     4.489000000    -0.172000000
H    -6.984000000     5.262000000     0.070000000
O     2.240000000    -5.814000000    -0.274000000
H     2.831000000    -5.149000000     0.078000000
H     2.386000000    -6.581000000     0.281000000
O     4.446000000    -0.337000000    -5.045000000
H     3.740000000    -0.690000000    -5.586000000
H     4.027000000     0.345000000    -4.520000000
O     3.280000000    -5.943000000    -2.856000000
H     2.602000000    -6.409000000    -3.345000000
H     3.087000000    -6.134000000    -1.938000000
O    -5.680000000     1.222000000     1.765000000
H    -6.555000000     1.554000000     1.563000000
H    -5.088000000     1.794000000     1.276000000
O     6.658000000    -3.150000000    -0.456000000
H     7.346000000    -2.772000000     0.092000000
H     6.328000000    -2.412000000    -0.969000000
O    -2.167000000    -0.547000000     7.342000000
H    -1.653000000    -0.666000000     6.543000000
H    -1.597000000    -0.041000000     7.921000000
O     7.723000000    -0.582000000    -3.106000000
H     6.875000000    -1.023000000    -3.064000000
H     8.218000000    -0.945000000    -2.371000000
O     5.970000000     1.670000000    -1.772000000
H     6.460000000     1.358000000    -2.532000000
H     6.273000000     2.569000000    -1.644000000
O    -5.052000000    -0.575000000    -5.237000000
H    -4.115000000    -0.407000000    -5.341000000
H    -5.111000000    -1.127000000    -4.458000000
O     5.130000000     0.240000000     0.609000000
H     5.294000000     0.980000000     0.025000000
H     5.999000000    -0.108000000     0.805000000
O    -4.515000000     4.389000000    -3.848000000
H    -4.896000000     3.669000000    -4.351000000
H    -3.818000000     3.980000000    -3.335000000
O     5.451000000    -1.385000000    -1.965000000
H     4.733000000    -1.689000000    -2.521000000
H     5.044000000    -0.749000000    -1.376000000
O    -0.490000000    -6.544000000    -2.878000000
H    -0.135000000    -5.939000000    -2.226000000
H     0.282000000    -6.946000000    -3.277000000
O    -2.415000000     1.379000000    -4.562000000
H    -1.776000000     0.739000000    -4.249000000
H    -2.498000000     2.007000000    -3.845000000
O    -3.378000000     3.150000000     6.157000000
H    -3.943000000     3.143000000     6.930000000
H    -3.907000000     2.746000000     5.470000000
O     0.772000000     4.667000000    -2.238000000
H     0.033000000     5.157000000    -1.877000000
H     1.423000000     5.336000000    -2.450000000
O    -0.504000000    -1.589000000    -5.464000000
H    -1.263000000    -2.037000000    -5.091000000
H     0.024000000    -2.290000000    -5.845000000
O    -3.813000000     6.884000000    -0.642000000
H    -4.673000000     7.010000000    -1.042000000
H    -3.929000000     6.142000000    -0.050000000
O     3.504000000     2.294000000     3.425000000
H     3.669000000     1.858000000     2.589000000
H     2.743000000     2.850000000     3.259000000
O     0.705000000     2.727000000    -5.116000000
H     0.158000000     3.242000000    -4.523000000
H     1.602000000     2.925000000    -4.847000000
O     4.267000000     3.547000000     0.887000000
H     3.759000000     4.285000000     1.225000000
H     3.622000000     2.997000000     0.441000000
O     0.644000000     4.862000000     4.300000000
H     0.422000000     5.781000000     4.149000000
H     0.535000000     4.446000000     3.444000000
O    -1.331000000     4.540000000     2.027000000
H    -1.765000000     5.369000000     2.226000000
H    -1.878000000     3.876000000     2.449000000
O    -1.070000000     1.942000000     4.785000000
H    -1.103000000     2.033000000     3.833000000
H    -1.914000000     2.279000000     5.087000000
O     3.347000000     2.101000000    -3.171000000
H     4.120000000     1.790000000    -2.701000000
H     3.660000000     2.847000000    -3.682000000
O    -4.419000000     2.145000000     4.025000000
H    -5.204000000     1.907000000     3.533000000
H    -3.694000000     1.925000000     3.440000000
O    -2.340000000     3.177000000    -2.277000000
H    -2.611000000     2.742000000    -1.469000000
H    -1.781000000     3.897000000    -1.986000000
O    -4.961000000    -2.065000000    -2.754000000
H    -5.461000000    -2.697000000    -2.237000000
H    -4.893000000    -1.295000000    -2.190000000
O     0.292000000     0.487000000    -6.968000000
H     0.441000000     1.217000000    -6.368000000
H    -0.092000000    -0.199000000    -6.421000000
O     2.240000000     2.508000000    -0.572000000
H     2.234000000     1.556000000    -0.667000000
H     2.335000000     2.838000000    -1.465000000
O     2.294000000    -3.271000000     4.288000000
H     2.926000000    -2.700000000     3.851000000
H     2.559000000    -4.156000000     4.039000000
O     1.022000000     3.295000000     1.950000000
H     1.362000000     2.911000000     1.142000000
H     0.186000000     3.687000000     1.696000000
O     2.059000000     0.673000000     5.810000000
H     2.146000000     1.451000000     6.363000000
H     2.122000000     1.007000000     4.916000000
O    -3.982000000     4.494000000     0.876000000
H    -3.703000000     3.594000000     0.703000000
H    -3.464000000     4.763000000     1.635000000
