144
-2831.41233
O    -1.064000000    -1.563000000     4.410000000
H    -1.745000000    -2.111000000     4.799000000
H    -0.622000000    -2.138000000     3.785000000
O     2.251000000     6.083000000    -0.004000000
H     1.767000000     5.285000000    -0.215000000
H     1.619000000     6.631000000     0.461000000
O     3.419000000    -0.311000000    -0.578000000
H     3.366000000     0.556000000    -0.176000000
H     2.518000000    -0.515000000    -0.828000000
O    -4.635000000    -1.623000000     2.632000000
H    -4.875000000    -1.428000000     3.538000000
H    -3.814000000    -1.150000000     2.495000000
O     0.633000000    -0.467000000     6.817000000
H     0.076000000    -0.650000000     7.574000000
H     0.068000000    -0.626000000     6.061000000
O     3.291000000     0.773000000     6.518000000
H     3.282000000     0.814000000     7.475000000
H     2.646000000     0.100000000     6.302000000
O    -4.315000000     2.550000000    -4.315000000
H    -3.820000000     2.361000000    -5.113000000
H    -3.923000000     3.355000000    -3.976000000
O    -0.797000000    -3.974000000     2.960000000
H    -1.664000000    -4.006000000     2.556000000
H    -0.278000000    -4.606000000     2.463000000
O    -2.542000000    -0.103000000    -4.928000000
H    -2.558000000     0.817000000    -5.190000000
H    -2.791000000    -0.582000000    -5.718000000
O     1.256000000    -2.534000000    -3.148000000
H     1.277000000    -1.879000000    -3.846000000
H     0.355000000    -2.857000000    -3.149000000
O     1.976000000     8.068000000     3.053000000
H     2.559000000     8.509000000     2.435000000
H     1.965000000     7.156000000     2.764000000
O    -0.981000000     6.711000000     2.700000000
H    -1.683000000     6.205000000     2.291000000
H    -0.312000000     6.062000000     2.915000000
O     3.501000000     4.255000000    -5.207000000
H     3.345000000     3.858000000    -4.350000000
H     4.401000000     4.578000000    -5.160000000
O    -4.158000000     4.182000000    -0.925000000
H    -4.264000000     3.368000000    -0.433000000
H    -5.030000000     4.366000000    -1.275000000
O     3.024000000    -3.650000000    -1.515000000
H     2.434000000    -4.385000000    -1.350000000
H     2.450000000    -2.885000000    -1.552000000
O    -1.198000000     6.389000000    -3.286000000
H    -0.416000000     6.195000000    -3.803000000
H    -0.866000000     6.566000000    -2.406000000
O     4.140000000     7.404000000    -1.128000000
H     4.991000000     7.266000000    -0.712000000
H     3.516000000     6.969000000    -0.548000000
O    -3.354000000    -4.911000000    -1.256000000
H    -4.079000000    -5.536000000    -1.261000000
H    -3.712000000    -4.125000000    -1.669000000
O    -4.469000000     1.316000000    -0.443000000
H    -5.313000000     1.052000000    -0.809000000
H    -3.823000000     0.971000000    -1.059000000
O    -1.593000000    -3.546000000    -4.557000000
H    -1.733000000    -2.645000000    -4.850000000
H    -1.808000000    -4.082000000    -5.320000000
O     2.651000000     3.444000000    -2.673000000
H     1.810000000     3.297000000    -2.240000000
H     3.208000000     3.820000000    -1.991000000
O    -6.355000000    -1.548000000     0.194000000
H    -7.092000000    -1.884000000     0.704000000
H    -5.624000000    -1.533000000     0.811000000
O     2.877000000    -4.511000000     1.440000000
H     2.467000000    -5.232000000     1.918000000
H     2.668000000    -4.682000000     0.522000000
O    -3.084000000     4.568000000    -3.351000000
H    -3.280000000     4.387000000    -2.432000000
H    -2.275000000     5.079000000    -3.328000000
O    -5.206000000    -4.280000000     3.052000000
H    -4.471000000    -4.521000000     2.488000000
H    -5.143000000    -3.328000000     3.133000000
O    -0.717000000    -5.970000000    -2.186000000
H    -1.149000000    -6.811000000    -2.040000000
H    -1.399000000    -5.318000000    -2.026000000
O    -3.277000000     2.376000000     4.079000000
H    -3.361000000     1.712000000     3.395000000
H    -2.345000000     2.594000000     4.088000000
O     1.769000000    -5.096000000    -4.848000000
H     1.971000000    -4.202000000    -4.572000000
H     0.813000000    -5.133000000    -4.858000000
O    -2.293000000     0.050000000     2.561000000
H    -1.683000000     0.134000000     1.828000000
H    -1.813000000    -0.461000000     3.213000000
O     3.714000000     2.806000000     1.914000000
H     2.804000000     2.998000000     1.689000000
H     3.675000000     2.473000000     2.811000000
O    -2.799000000     5.605000000     1.015000000
H    -3.158000000     5.328000000     0.172000000
H    -3.410000000     5.252000000     1.662000000
O     4.421000000    -2.574000000    -3.591000000
H     3.804000000    -3.016000000    -3.008000000
H     5.007000000    -3.269000000    -3.892000000
O     5.546000000    -1.947000000    -0.448000000
H     4.682000000    -1.538000000    -0.424000000
H     5.365000000    -2.887000000    -0.481000000
O     4.178000000     2.195000000     4.469000000
H     3.910000000     1.781000000     5.289000000
H     5.135000000     2.198000000     4.503000000
O    -4.836000000    -2.658000000    -2.017000000
H    -5.396000000    -2.305000000    -1.326000000
H    -4.744000000    -1.939000000    -2.642000000
O     4.788000000     6.865000000     3.123000000
H     4.042000000     6.540000000     2.620000000
H     5.547000000     6.692000000     2.566000000
O    -0.511000000     3.214000000     3.817000000
H     0.013000000     3.070000000     3.029000000
H     0.121000000     3.508000000     4.474000000
O     4.496000000     4.041000000    -0.232000000
H     4.333000000     3.561000000     0.580000000
H     4.041000000     4.875000000    -0.112000000
O     2.147000000     1.358000000    -4.870000000
H     2.203000000     2.018000000    -4.179000000
H     3.056000000     1.111000000    -5.040000000
O     1.715000000     3.691000000     5.118000000
H     1.569000000     3.389000000     6.014000000
H     2.485000000     3.204000000     4.823000000
O    -4.865000000     0.229000000    -3.019000000
H    -4.525000000     1.045000000    -3.386000000
H    -5.711000000     0.108000000    -3.449000000
O     0.984000000    -6.518000000     2.111000000
H     1.105000000    -7.402000000     2.457000000
H     0.641000000    -6.652000000     1.227000000
O    -0.602000000     5.754000000    -0.676000000
H    -1.232000000     5.505000000     0.000000000
H    -0.019000000     4.999000000    -0.750000000
O    -2.908000000    -5.051000000     1.570000000
H    -3.014000000    -4.757000000     0.665000000
H    -2.963000000    -6.006000000     1.519000000
O     0.143000000    -0.698000000    -5.093000000
H     0.497000000     0.170000000    -4.900000000
H    -0.805000000    -0.593000000    -5.012000000
O     1.644000000    -5.868000000    -0.964000000
H     0.888000000    -5.655000000    -1.511000000
H     1.621000000    -6.821000000    -0.884000000
O     1.682000000     5.359000000     2.721000000
H     1.433000000     4.582000000     2.221000000
H     1.632000000     5.082000000     3.636000000
O     5.254000000    -3.665000000     2.447000000
H     4.316000000    -3.637000000     2.254000000
H     5.401000000    -2.921000000     3.031000000
