144
-2813.63702
O    -0.554000000    -6.388000000    -4.600000000
H    -0.429000000    -6.956000000    -3.840000000
H    -0.524000000    -6.983000000    -5.350000000
O     2.311000000     5.242000000     2.152000000
H     1.772000000     4.550000000     1.768000000
H     3.146000000     4.816000000     2.346000000
O     4.921000000     0.657000000     2.196000000
H     4.261000000     0.877000000     2.853000000
H     4.886000000    -0.297000000     2.131000000
O    -5.509000000    -0.154000000     1.376000000
H    -5.136000000    -0.188000000     2.257000000
H    -4.947000000    -0.729000000     0.856000000
O    -3.972000000     0.575000000    -3.446000000
H    -4.031000000     0.744000000    -4.386000000
H    -3.402000000    -0.191000000    -3.375000000
O    -3.632000000    -3.040000000     2.654000000
H    -3.271000000    -2.250000000     2.252000000
H    -3.688000000    -3.671000000     1.936000000
O    -2.746000000    -2.069000000    -4.042000000
H    -2.013000000    -1.481000000    -4.224000000
H    -3.299000000    -2.011000000    -4.821000000
O     1.843000000    -1.545000000    -3.928000000
H     1.588000000    -2.451000000    -4.099000000
H     1.319000000    -1.028000000    -4.540000000
O     3.993000000     1.214000000    -0.414000000
H     3.806000000     0.446000000    -0.954000000
H     4.284000000     0.853000000     0.423000000
O     4.929000000     0.596000000     5.932000000
H     4.445000000     0.621000000     5.107000000
H     5.790000000     0.953000000     5.716000000
O     3.110000000    -4.139000000    -0.073000000
H     3.359000000    -5.063000000    -0.104000000
H     2.897000000    -3.919000000    -0.980000000
O    -1.862000000     5.132000000    -2.962000000
H    -1.067000000     4.909000000    -2.478000000
H    -2.535000000     4.560000000    -2.594000000
O    -1.007000000    -5.690000000    -0.892000000
H    -1.161000000    -6.574000000    -1.223000000
H    -1.766000000    -5.188000000    -1.188000000
O    -3.249000000    -4.651000000    -1.914000000
H    -3.889000000    -5.179000000    -2.392000000
H    -3.304000000    -3.785000000    -2.317000000
O     1.239000000    -5.002000000    -2.450000000
H     0.410000000    -5.175000000    -2.003000000
H     0.988000000    -4.543000000    -3.251000000
O     2.828000000     2.915000000    -2.705000000
H     3.253000000     3.752000000    -2.890000000
H     3.216000000     2.627000000    -1.878000000
O     3.261000000     2.886000000     6.870000000
H     3.434000000     2.517000000     6.004000000
H     3.373000000     3.830000000     6.754000000
O    -0.347000000    -4.379000000     3.670000000
H     0.045000000    -4.450000000     2.800000000
H    -0.954000000    -5.117000000     3.720000000
O    -3.996000000     2.449000000    -1.578000000
H    -3.689000000     1.970000000    -2.348000000
H    -4.910000000     2.656000000    -1.772000000
O     3.659000000    -1.140000000    -1.997000000
H     4.190000000    -1.934000000    -1.937000000
H     2.947000000    -1.371000000    -2.592000000
O    -3.625000000    -5.232000000     1.072000000
H    -3.688000000    -6.096000000     1.478000000
H    -3.174000000    -5.389000000     0.243000000
O    -2.744000000     1.768000000     2.425000000
H    -3.015000000     1.632000000     3.333000000
H    -2.705000000     2.719000000     2.326000000
O     2.772000000    -7.098000000    -3.273000000
H     2.703000000    -7.628000000    -2.479000000
H     2.482000000    -6.226000000    -3.005000000
O    -2.709000000    -0.856000000     1.505000000
H    -2.684000000     0.100000000     1.545000000
H    -1.803000000    -1.113000000     1.332000000
O     3.010000000     1.120000000     4.073000000
H     2.576000000     1.696000000     3.443000000
H     2.372000000     0.426000000     4.242000000
O     0.873000000    -0.589000000    -6.772000000
H     0.301000000    -1.247000000    -6.378000000
H     0.303000000    -0.101000000    -7.366000000
O     4.448000000    -2.020000000     1.447000000
H     4.318000000    -2.184000000     2.381000000
H     3.841000000    -2.619000000     1.011000000
O     0.226000000     6.771000000     0.796000000
H     0.305000000     6.041000000     0.182000000
H     0.526000000     6.415000000     1.632000000
O     0.912000000     1.608000000     7.702000000
H     0.426000000     1.693000000     6.881000000
H     1.826000000     1.747000000     7.454000000
O     0.659000000    -0.609000000     4.016000000
H     0.076000000    -0.817000000     3.286000000
H     0.815000000    -1.450000000     4.445000000
O     5.386000000     3.677000000    -0.139000000
H     4.962000000     3.967000000     0.669000000
H     5.089000000     2.774000000    -0.254000000
O    -6.534000000    -3.639000000    -2.447000000
H    -6.682000000    -3.308000000    -3.333000000
H    -6.301000000    -2.863000000    -1.938000000
O     0.282000000     4.341000000    -1.594000000
H     0.830000000     3.840000000    -2.198000000
H     0.243000000     3.802000000    -0.804000000
O     1.902000000     7.309000000     3.715000000
H     0.953000000     7.195000000     3.770000000
H     2.208000000     6.543000000     3.230000000
O    -1.509000000     4.596000000     2.089000000
H    -0.719000000     4.445000000     1.570000000
H    -1.323000000     5.396000000     2.580000000
O     4.421000000     3.992000000     2.824000000
H     3.969000000     3.414000000     3.439000000
H     5.205000000     4.276000000     3.295000000
O     0.973000000     1.032000000    -3.416000000
H     1.320000000     1.827000000    -3.013000000
H     1.669000000     0.384000000    -3.308000000
O    -0.920000000     1.544000000     5.374000000
H    -1.694000000     0.980000000     5.370000000
H    -0.294000000     1.095000000     4.806000000
O    -2.307000000     8.011000000     0.408000000
H    -2.276000000     8.185000000     1.349000000
H    -1.429000000     7.693000000     0.194000000
O    -6.361000000    -0.807000000    -1.851000000
H    -5.551000000    -0.367000000    -2.109000000
H    -6.941000000    -0.702000000    -2.605000000
O    -0.362000000     4.840000000     6.859000000
H     0.195000000     4.446000000     7.530000000
H     0.115000000     4.702000000     6.041000000
O    -3.998000000     4.625000000     0.380000000
H    -4.094000000     3.764000000    -0.028000000
H    -3.128000000     4.605000000     0.779000000
O    -1.007000000    -0.215000000    -4.725000000
H    -0.433000000     0.087000000    -4.021000000
H    -1.147000000     0.560000000    -5.270000000
O     0.931000000    -5.096000000     1.103000000
H     1.605000000    -4.589000000     0.651000000
H     0.268000000    -5.265000000     0.433000000
O     3.240000000    -4.110000000    -4.832000000
H     3.850000000    -3.765000000    -5.485000000
H     2.396000000    -4.137000000    -5.283000000
O     0.430000000     3.957000000     4.496000000
H     0.837000000     3.532000000     3.741000000
H    -0.445000000     3.572000000     4.546000000
O     0.287000000    -3.899000000    -4.772000000
H    -0.514000000    -3.411000000    -4.959000000
H     0.014000000    -4.817000000    -4.772000000
O     4.422000000    -2.522000000     4.076000000
H     3.991000000    -2.439000000     4.926000000
H     5.238000000    -2.032000000     4.172000000
