144
-2804.93982
O    -0.559000000     1.765000000     4.626000000
H    -0.488000000     2.680000000     4.352000000
H     0.329000000     1.418000000     4.533000000
O     4.640000000     0.780000000     4.192000000
H     3.913000000     1.200000000     3.732000000
H     5.372000000     0.829000000     3.577000000
O     4.770000000     4.504000000    -1.232000000
H     5.110000000     5.265000000    -0.762000000
H     5.070000000     3.753000000    -0.719000000
O     8.236000000     2.847000000    -0.009000000
H     8.234000000     2.001000000    -0.456000000
H     7.543000000     2.773000000     0.647000000
O    -2.069000000     5.169000000    -0.789000000
H    -2.071000000     5.185000000     0.168000000
H    -2.015000000     4.240000000    -1.013000000
O    -0.631000000     4.381000000     4.194000000
H    -0.764000000     4.692000000     5.089000000
H     0.209000000     4.758000000     3.932000000
O    -4.721000000     0.465000000    -3.048000000
H    -4.429000000     1.014000000    -3.776000000
H    -4.555000000    -0.431000000    -3.343000000
O    -1.217000000    -4.238000000    -2.078000000
H    -1.565000000    -3.867000000    -1.268000000
H    -1.659000000    -5.083000000    -2.165000000
O    -7.070000000    -1.912000000     0.594000000
H    -7.833000000    -2.199000000     1.096000000
H    -7.007000000    -2.540000000    -0.125000000
O     3.617000000     1.217000000    -2.307000000
H     4.535000000     1.468000000    -2.408000000
H     3.566000000     0.844000000    -1.427000000
O    -4.964000000     4.294000000    -2.316000000
H    -4.624000000     5.149000000    -2.581000000
H    -4.205000000     3.835000000    -1.956000000
O     0.278000000    -2.011000000     2.615000000
H    -0.545000000    -1.906000000     3.093000000
H     0.158000000    -1.498000000     1.816000000
O     6.901000000     2.252000000     2.901000000
H     7.209000000     2.828000000     3.600000000
H     7.339000000     1.417000000     3.069000000
O    -3.126000000     0.667000000     4.141000000
H    -2.257000000     1.059000000     4.234000000
H    -3.724000000     1.413000000     4.111000000
O     4.408000000     6.430000000     2.222000000
H     4.755000000     6.798000000     3.034000000
H     4.217000000     5.517000000     2.435000000
O    -1.432000000    -0.093000000    -6.005000000
H    -1.561000000    -0.108000000    -6.953000000
H    -1.360000000    -1.016000000    -5.759000000
O     3.244000000    -3.365000000    -1.341000000
H     3.470000000    -2.948000000    -2.172000000
H     2.473000000    -3.896000000    -1.540000000
O     7.992000000     0.084000000    -0.947000000
H     7.393000000    -0.174000000    -0.246000000
H     8.754000000    -0.484000000    -0.831000000
O    -4.718000000     2.914000000     4.556000000
H    -5.003000000     3.099000000     3.662000000
H    -5.487000000     3.096000000     5.096000000
O    -2.371000000    -1.781000000     3.199000000
H    -3.144000000    -2.300000000     3.418000000
H    -2.625000000    -0.879000000     3.396000000
O    -2.141000000     4.777000000     1.940000000
H    -2.879000000     5.257000000     2.315000000
H    -1.596000000     4.547000000     2.693000000
O     0.737000000     6.683000000     0.918000000
H     0.141000000     6.171000000     1.464000000
H     1.216000000     6.030000000     0.408000000
O     6.339000000     1.507000000    -2.553000000
H     6.990000000     0.953000000    -2.122000000
H     6.849000000     2.213000000    -2.948000000
O     1.002000000     2.802000000    -2.233000000
H     1.948000000     2.659000000    -2.210000000
H     0.861000000     3.355000000    -3.002000000
O    -2.539000000     2.717000000    -4.224000000
H    -2.587000000     2.944000000    -3.295000000
H    -1.692000000     2.282000000    -4.320000000
O    -2.236000000    -2.639000000    -4.546000000
H    -3.176000000    -2.491000000    -4.444000000
H    -1.981000000    -3.116000000    -3.756000000
O    -4.775000000    -3.875000000    -0.298000000
H    -5.473000000    -4.060000000    -0.926000000
H    -4.972000000    -2.998000000     0.029000000
O    -4.890000000    -2.419000000    -4.141000000
H    -5.122000000    -2.217000000    -5.047000000
H    -5.659000000    -2.871000000    -3.792000000
O    -2.382000000    -4.315000000     0.918000000
H    -2.264000000    -3.421000000     1.237000000
H    -3.231000000    -4.302000000     0.476000000
O     4.298000000    -2.858000000     0.956000000
H     5.011000000    -2.221000000     0.905000000
H     3.865000000    -2.801000000     0.104000000
O    -4.250000000     1.953000000    -0.979000000
H    -4.604000000     1.735000000    -1.841000000
H    -4.430000000     1.179000000    -0.444000000
O     2.367000000     4.135000000     2.676000000
H     2.474000000     3.957000000     1.742000000
H     2.723000000     3.359000000     3.110000000
O    -0.818000000     1.651000000     7.291000000
H    -0.739000000     2.588000000     7.472000000
H    -0.600000000     1.568000000     6.362000000
O     5.263000000     3.098000000     1.081000000
H     5.760000000     2.851000000     1.861000000
H     4.624000000     2.394000000     0.971000000
O     1.755000000    -0.118000000     6.657000000
H     2.334000000     0.640000000     6.579000000
H     2.029000000    -0.702000000     5.950000000
O    -5.892000000     2.546000000     1.926000000
H    -5.529000000     1.703000000     1.655000000
H    -5.674000000     3.142000000     1.209000000
O    -1.477000000     2.583000000    -1.762000000
H    -1.908000000     1.897000000    -1.252000000
H    -0.546000000     2.480000000    -1.565000000
O     1.998000000     4.652000000    -0.286000000
H     1.625000000     3.946000000    -0.815000000
H     2.943000000     4.575000000    -0.417000000
O     5.556000000     1.496000000     6.600000000
H     5.153000000     1.307000000     5.753000000
H     4.842000000     1.408000000     7.231000000
O     2.196000000     0.702000000    -4.719000000
H     2.417000000     0.803000000    -3.793000000
H     2.923000000     1.114000000    -5.186000000
O    -5.223000000     0.150000000     1.097000000
H    -6.068000000    -0.199000000     0.813000000
H    -4.785000000    -0.593000000     1.512000000
O     2.476000000    -1.138000000     4.265000000
H     1.901000000    -1.115000000     3.501000000
H     3.103000000    -0.431000000     4.115000000
O    -2.741000000    -6.497000000    -2.223000000
H    -3.571000000    -6.054000000    -2.047000000
H    -2.938000000    -7.099000000    -2.941000000
O     2.536000000     2.807000000     6.751000000
H     1.725000000     3.315000000     6.723000000
H     2.764000000     2.770000000     7.680000000
O     5.712000000    -0.530000000     0.825000000
H     5.009000000     0.119000000     0.834000000
H     6.278000000    -0.280000000     1.555000000
O     4.508000000    -2.635000000    -3.707000000
H     5.037000000    -1.905000000    -4.031000000
H     3.887000000    -2.812000000    -4.414000000
O     1.403000000    -5.162000000    -2.690000000
H     1.482000000    -5.517000000    -3.575000000
H     0.475000000    -4.950000000    -2.598000000
O     0.767000000    -1.561000000    -5.352000000
H     1.529000000    -1.020000000    -5.562000000
H     0.321000000    -1.085000000    -4.652000000
