144
-2817.99094
O     3.055000000    -3.903000000     1.461000000
H     2.341000000    -3.551000000     1.992000000
H     3.570000000    -3.135000000     1.212000000
O     2.184000000     1.910000000     3.143000000
H     3.043000000     2.130000000     3.503000000
H     2.331000000     1.836000000     2.201000000
O     5.411000000     1.315000000     2.287000000
H     4.700000000     1.633000000     1.730000000
H     5.364000000     1.862000000     3.071000000
O     2.491000000     0.669000000    -4.587000000
H     3.058000000     1.050000000    -5.257000000
H     3.056000000     0.059000000    -4.114000000
O    -3.770000000    -4.195000000     1.663000000
H    -4.173000000    -4.923000000     2.137000000
H    -4.492000000    -3.799000000     1.174000000
O     7.679000000     2.256000000    -2.615000000
H     8.136000000     1.857000000    -1.875000000
H     6.759000000     2.267000000    -2.351000000
O    -3.315000000    -4.688000000    -2.422000000
H    -2.745000000    -4.898000000    -3.162000000
H    -2.751000000    -4.772000000    -1.654000000
O    -1.565000000     4.013000000     1.977000000
H    -2.473000000     3.842000000     1.725000000
H    -1.359000000     3.327000000     2.610000000
O    -4.587000000    -0.362000000    -3.515000000
H    -3.758000000    -0.418000000    -3.990000000
H    -5.080000000    -1.130000000    -3.803000000
O     5.830000000     4.472000000     0.787000000
H     6.160000000     5.117000000     1.413000000
H     4.896000000     4.667000000     0.711000000
O     3.581000000    -1.192000000    -2.763000000
H     4.278000000    -1.839000000    -2.651000000
H     3.729000000    -0.557000000    -2.061000000
O     1.149000000    -2.462000000     2.463000000
H     0.513000000    -2.239000000     1.783000000
H     0.653000000    -2.987000000     3.091000000
O     7.451000000     2.462000000     0.899000000
H     7.043000000     3.306000000     0.707000000
H     6.895000000     2.075000000     1.576000000
O    -1.297000000     0.993000000     4.817000000
H    -0.581000000     1.619000000     4.925000000
H    -1.760000000     1.292000000     4.034000000
O     4.180000000     6.811000000    -2.080000000
H     4.043000000     5.953000000    -1.680000000
H     4.680000000     6.628000000    -2.875000000
O     8.910000000    -0.499000000    -0.856000000
H     7.976000000    -0.300000000    -0.931000000
H     8.953000000    -1.206000000    -0.213000000
O    -3.558000000     1.759000000     3.254000000
H    -4.054000000     0.957000000     3.414000000
H    -3.771000000     1.996000000     2.351000000
O     1.310000000     4.744000000    -2.363000000
H     0.456000000     4.335000000    -2.222000000
H     1.601000000     4.403000000    -3.209000000
O     5.723000000    -3.195000000    -2.349000000
H     6.678000000    -3.244000000    -2.396000000
H     5.439000000    -4.107000000    -2.291000000
O    -7.403000000    -0.350000000    -2.487000000
H    -6.696000000    -0.923000000    -2.190000000
H    -6.959000000     0.355000000    -2.957000000
O     0.020000000    -2.558000000    -3.328000000
H     0.273000000    -1.748000000    -2.885000000
H     0.696000000    -2.687000000    -3.994000000
O    -1.354000000     7.290000000     1.304000000
H    -1.473000000     6.342000000     1.366000000
H    -0.415000000     7.423000000     1.433000000
O    -2.236000000    -1.191000000    -4.787000000
H    -1.707000000    -0.791000000    -4.097000000
H    -1.730000000    -1.055000000    -5.587000000
O     6.081000000    -1.193000000     2.139000000
H     5.600000000    -1.831000000     1.613000000
H     5.868000000    -0.347000000     1.745000000
O    -1.775000000    -4.647000000    -0.034000000
H    -1.225000000    -4.968000000     0.681000000
H    -2.578000000    -4.352000000     0.396000000
O    -6.152000000    -2.693000000     1.422000000
H    -6.424000000    -2.526000000     2.324000000
H    -6.922000000    -2.477000000     0.896000000
O     1.351000000     7.560000000     0.484000000
H     1.325000000     6.607000000     0.567000000
H     2.271000000     7.760000000     0.309000000
O     5.351000000     5.152000000    -4.192000000
H     5.841000000     4.849000000    -4.956000000
H     5.131000000     4.351000000    -3.716000000
O    -0.427000000    -5.175000000    -2.473000000
H    -0.740000000    -5.110000000    -1.571000000
H    -0.282000000    -4.268000000    -2.743000000
O     4.740000000    -2.139000000     0.081000000
H     5.178000000    -1.359000000    -0.258000000
H     4.831000000    -2.788000000    -0.616000000
O     3.296000000     4.412000000    -0.521000000
H     2.518000000     4.577000000    -1.054000000
H     3.158000000     3.537000000    -0.159000000
O     0.078000000     3.130000000     4.089000000
H     0.400000000     3.992000000     4.350000000
H     0.858000000     2.664000000     3.788000000
O     5.060000000     2.991000000    -2.055000000
H     5.007000000     3.777000000    -1.511000000
H     4.399000000     2.402000000    -1.690000000
O    -4.709000000     1.622000000    -1.459000000
H    -4.314000000     1.018000000    -2.087000000
H    -5.388000000     2.076000000    -1.958000000
O    -1.960000000     2.971000000    -2.335000000
H    -2.173000000     2.257000000    -1.734000000
H    -1.413000000     2.563000000    -3.007000000
O     0.805000000     4.949000000     1.022000000
H     1.442000000     4.525000000     1.597000000
H    -0.045000000     4.642000000     1.337000000
O    -0.093000000     0.370000000    -3.214000000
H     0.743000000     0.576000000    -3.633000000
H     0.087000000     0.435000000    -2.276000000
O    -3.979000000     3.105000000     0.869000000
H    -4.684000000     3.742000000     0.985000000
H    -4.192000000     2.660000000     0.048000000
O     4.248000000     2.281000000     4.719000000
H     4.775000000     1.798000000     5.355000000
H     3.732000000     2.890000000     5.247000000
O    -4.729000000     2.810000000     5.462000000
H    -5.635000000     2.722000000     5.168000000
H    -4.208000000     2.726000000     4.663000000
O    -4.149000000    -0.800000000     3.678000000
H    -4.898000000    -1.196000000     3.233000000
H    -3.461000000    -1.463000000     3.624000000
O     1.742000000    -0.216000000     4.760000000
H     1.147000000    -0.657000000     4.153000000
H     1.923000000     0.628000000     4.346000000
O    -5.972000000     0.945000000     1.160000000
H    -5.291000000     0.517000000     0.641000000
H    -6.413000000     1.527000000     0.542000000
O     6.303000000     0.219000000    -0.765000000
H     5.368000000     0.346000000    -0.925000000
H     6.536000000     0.910000000    -0.145000000
O     3.939000000    -5.083000000    -0.790000000
H     3.630000000    -5.987000000    -0.848000000
H     3.644000000    -4.784000000     0.070000000
O    -2.606000000    -3.344000000     4.006000000
H    -2.240000000    -4.095000000     4.472000000
H    -2.764000000    -3.667000000     3.119000000
O     1.829000000    -2.716000000    -5.243000000
H     1.909000000    -2.888000000    -6.181000000
H     2.609000000    -2.205000000    -5.026000000
O    -0.309000000    -5.612000000     2.327000000
H     0.306000000    -6.346000000     2.322000000
H    -0.067000000    -5.102000000     3.100000000
