144
-2852.67761
O     6.034000000     1.783000000     4.794000000
H     5.520000000     2.425000000     4.304000000
H     6.784000000     2.277000000     5.123000000
O     5.143000000    -1.022000000     0.397000000
H     5.986000000    -0.780000000     0.781000000
H     4.599000000    -0.242000000     0.502000000
O    -5.346000000    -4.137000000    -0.490000000
H    -6.152000000    -4.028000000     0.015000000
H    -5.527000000    -3.705000000    -1.325000000
O    -6.231000000     2.511000000    -3.207000000
H    -5.465000000     2.306000000    -2.671000000
H    -5.891000000     2.565000000    -4.100000000
O     5.561000000     0.081000000    -3.065000000
H     5.763000000    -0.154000000    -3.971000000
H     4.956000000    -0.599000000    -2.770000000
O    -1.272000000     2.324000000     4.101000000
H    -1.886000000     1.598000000     4.207000000
H    -0.857000000     2.414000000     4.959000000
O    -3.055000000     0.338000000     4.453000000
H    -3.546000000    -0.294000000     3.928000000
H    -3.686000000     0.654000000     5.100000000
O     7.304000000    -1.230000000     2.266000000
H     7.126000000    -2.150000000     2.460000000
H     6.680000000    -0.746000000     2.807000000
O    -1.505000000     5.103000000     0.202000000
H    -0.680000000     5.264000000    -0.257000000
H    -1.870000000     5.975000000     0.351000000
O    -3.189000000    -6.039000000    -0.839000000
H    -3.442000000    -6.381000000    -1.697000000
H    -3.900000000    -5.444000000    -0.599000000
O     1.241000000     2.244000000     6.469000000
H     1.917000000     2.761000000     6.906000000
H     1.709000000     1.771000000     5.780000000
O    -1.211000000     1.311000000    -4.369000000
H    -0.446000000     0.827000000    -4.058000000
H    -1.416000000     1.917000000    -3.657000000
O     7.864000000     3.871000000     1.685000000
H     7.117000000     3.774000000     1.093000000
H     8.336000000     3.042000000     1.613000000
O    -0.041000000    -0.821000000     3.778000000
H    -0.611000000    -0.153000000     3.399000000
H    -0.258000000    -1.621000000     3.299000000
O    -4.321000000     2.009000000    -1.392000000
H    -3.718000000     2.730000000    -1.213000000
H    -3.757000000     1.242000000    -1.486000000
O     5.640000000     3.844000000     0.162000000
H     5.228000000     2.996000000    -0.008000000
H     5.004000000     4.486000000    -0.154000000
O    -1.501000000    -5.738000000     1.660000000
H    -1.795000000    -6.635000000     1.502000000
H    -0.735000000    -5.634000000     1.095000000
O    -5.961000000    -0.855000000    -3.835000000
H    -6.611000000    -0.357000000    -3.338000000
H    -6.043000000    -0.529000000    -4.731000000
O     4.432000000     1.990000000    -1.545000000
H     4.256000000     1.280000000    -0.928000000
H     5.001000000     1.596000000    -2.207000000
O    -3.021000000     3.710000000     2.126000000
H    -2.593000000     3.104000000     2.730000000
H    -2.402000000     3.803000000     1.402000000
O     0.825000000     3.912000000     3.104000000
H     0.221000000     3.281000000     3.495000000
H     1.332000000     3.400000000     2.473000000
O    -0.823000000    -3.263000000    -3.709000000
H    -1.134000000    -3.980000000    -4.263000000
H    -0.692000000    -2.533000000    -4.314000000
O    -1.627000000     3.091000000    -1.817000000
H    -1.176000000     2.433000000    -1.287000000
H    -1.542000000     3.902000000    -1.315000000
O     1.159000000    -4.625000000     1.050000000
H     1.927000000    -4.110000000     0.802000000
H     0.547000000    -4.507000000     0.324000000
O    -3.180000000    -3.562000000     1.305000000
H    -3.697000000    -3.470000000     0.505000000
H    -3.084000000    -4.507000000     1.421000000
O    -0.770000000    -2.176000000    -6.790000000
H    -1.640000000    -2.178000000    -6.393000000
H    -0.772000000    -1.414000000    -7.369000000
O     1.727000000     6.654000000     2.401000000
H     1.081000000     7.066000000     1.828000000
H     1.306000000     5.845000000     2.694000000
O     0.616000000     5.369000000    -1.370000000
H     1.095000000     4.558000000    -1.539000000
H     0.433000000     5.724000000    -2.240000000
O    -4.386000000    -1.343000000     2.707000000
H    -4.783000000    -0.650000000     2.179000000
H    -3.927000000    -1.894000000     2.073000000
O     2.119000000    -6.632000000    -1.309000000
H     2.418000000    -6.499000000    -2.208000000
H     1.175000000    -6.477000000    -1.345000000
O     4.393000000     3.935000000     3.207000000
H     5.019000000     4.422000000     2.669000000
H     4.048000000     3.261000000     2.622000000
O     3.474000000     5.998000000     0.234000000
H     2.865000000     6.650000000    -0.112000000
H     3.219000000     5.895000000     1.151000000
O    -6.135000000     0.560000000     0.658000000
H    -6.469000000     1.418000000     0.921000000
H    -5.796000000     0.695000000    -0.227000000
O     3.917000000    -5.013000000    -0.234000000
H     4.628000000    -4.933000000    -0.871000000
H     3.246000000    -5.522000000    -0.688000000
O     2.024000000    -4.142000000     3.620000000
H     1.479000000    -4.704000000     3.069000000
H     2.569000000    -3.655000000     3.002000000
O     5.035000000    -0.604000000     4.124000000
H     5.417000000     0.270000000     4.204000000
H     4.143000000    -0.448000000     3.813000000
O     1.899000000     2.939000000    -2.444000000
H     1.444000000     2.177000000    -2.803000000
H     2.609000000     2.568000000    -1.918000000
O    -6.064000000     3.112000000     1.596000000
H    -6.380000000     3.700000000     0.910000000
H    -5.115000000     3.093000000     1.477000000
O    -7.662000000    -2.603000000    -1.587000000
H    -7.791000000    -2.422000000    -2.518000000
H    -7.531000000    -1.741000000    -1.192000000
O    -0.776000000    -3.197000000     2.793000000
H    -1.525000000    -3.531000000     2.298000000
H    -0.020000000    -3.642000000     2.411000000
O    -0.427000000    -4.872000000    -1.169000000
H    -1.304000000    -5.174000000    -0.933000000
H    -0.533000000    -4.483000000    -2.037000000
O     2.531000000     0.897000000     4.179000000
H     1.756000000     0.394000000     3.928000000
H     2.637000000     1.540000000     3.477000000
O     3.846000000    -2.792000000     2.047000000
H     4.541000000    -3.444000000     2.143000000
H     4.229000000    -2.113000000     1.492000000
O     1.052000000     0.326000000    -3.254000000
H     1.640000000    -0.162000000    -3.831000000
H     0.807000000    -0.302000000    -2.574000000
O     4.205000000    -2.300000000    -2.145000000
H     4.655000000    -3.080000000    -2.472000000
H     4.517000000    -2.203000000    -1.246000000
O    -5.363000000    -3.519000000    -3.298000000
H    -5.520000000    -2.575000000    -3.319000000
H    -5.583000000    -3.818000000    -4.181000000
O     8.046000000     0.410000000    -1.225000000
H     7.200000000     0.582000000    -1.637000000
H     8.155000000    -0.539000000    -1.289000000
O     3.120000000    -1.066000000    -4.728000000
H     3.948000000    -0.812000000    -5.136000000
H     3.374000000    -1.444000000    -3.886000000
