144
-2807.96276
O    -5.821000000    -0.267000000    -2.813000000
H    -5.384000000     0.000000000    -3.622000000
H    -6.595000000     0.294000000    -2.763000000
O     5.498000000     0.245000000     0.155000000
H     5.360000000     0.178000000    -0.790000000
H     4.909000000     0.946000000     0.434000000
O    -6.002000000    -3.530000000    -0.097000000
H    -6.624000000    -4.127000000     0.318000000
H    -6.288000000    -3.481000000    -1.009000000
O     2.000000000     2.137000000    -4.835000000
H     2.282000000     1.732000000    -4.015000000
H     1.554000000     1.434000000    -5.308000000
O     6.042000000     0.069000000    -2.501000000
H     5.988000000     0.134000000    -3.454000000
H     6.144000000    -0.867000000    -2.329000000
O    -2.432000000    -7.069000000     0.275000000
H    -2.755000000    -7.893000000    -0.089000000
H    -2.662000000    -6.411000000    -0.381000000
O    -2.934000000     3.649000000     2.732000000
H    -3.272000000     2.791000000     2.988000000
H    -1.999000000     3.608000000     2.934000000
O    -4.252000000     1.287000000     3.600000000
H    -4.761000000     0.481000000     3.514000000
H    -4.883000000     1.938000000     3.907000000
O     7.507000000     1.099000000     2.524000000
H     7.428000000     0.287000000     2.025000000
H     6.621000000     1.461000000     2.535000000
O    -1.392000000     5.015000000     0.511000000
H    -1.864000000     4.842000000    -0.304000000
H    -0.746000000     5.681000000     0.276000000
O    -3.257000000    -5.285000000    -1.447000000
H    -2.850000000    -5.008000000    -2.268000000
H    -4.193000000    -5.322000000    -1.645000000
O     4.179000000     4.170000000    -4.249000000
H     3.707000000     3.362000000    -4.046000000
H     3.507000000     4.761000000    -4.587000000
O    -1.197000000     1.282000000    -3.696000000
H    -0.382000000     0.858000000    -3.966000000
H    -0.933000000     1.889000000    -3.005000000
O    -0.422000000     0.573000000     3.598000000
H    -0.987000000    -0.194000000     3.694000000
H    -0.380000000     0.722000000     2.654000000
O    -4.445000000     1.774000000    -0.890000000
H    -3.533000000     2.064000000    -0.906000000
H    -4.746000000     1.885000000    -1.792000000
O     6.155000000     3.747000000    -2.521000000
H     5.712000000     3.847000000    -1.678000000
H     5.460000000     3.849000000    -3.171000000
O     4.550000000     4.452000000    -0.447000000
H     3.938000000     3.716000000    -0.488000000
H     4.024000000     5.183000000    -0.122000000
O    -1.577000000    -6.231000000     2.774000000
H    -1.895000000    -6.639000000     1.969000000
H    -0.931000000    -5.590000000     2.479000000
O     3.523000000     1.527000000    -2.600000000
H     3.391000000     1.700000000    -1.668000000
H     4.443000000     1.272000000    -2.668000000
O    -3.926000000     5.652000000     1.469000000
H    -3.934000000     4.814000000     1.932000000
H    -3.087000000     5.663000000     1.008000000
O    -0.235000000     4.221000000     2.967000000
H    -0.602000000     4.707000000     2.228000000
H     0.562000000     3.822000000     2.618000000
O     0.797000000    -4.970000000     1.265000000
H     1.646000000    -5.220000000     1.629000000
H     0.749000000    -5.435000000     0.430000000
O     0.091000000    -6.007000000    -3.894000000
H     0.997000000    -6.114000000    -4.186000000
H    -0.194000000    -5.185000000    -4.294000000
O    -2.470000000     4.031000000    -2.398000000
H    -1.546000000     3.905000000    -2.614000000
H    -2.770000000     4.703000000    -3.009000000
O     0.420000000    -2.492000000     2.560000000
H     0.301000000    -3.342000000     2.135000000
H     0.726000000    -1.915000000     1.860000000
O    -4.505000000    -3.252000000     2.595000000
H    -4.521000000    -3.623000000     1.713000000
H    -4.505000000    -4.014000000     3.175000000
O    -2.040000000    -1.473000000    -4.437000000
H    -1.951000000    -1.319000000    -5.378000000
H    -1.665000000    -0.692000000    -4.031000000
O     1.523000000     6.671000000     3.167000000
H     0.994000000     7.453000000     3.011000000
H     0.886000000     5.989000000     3.380000000
O    -6.015000000    -1.092000000     2.985000000
H    -6.026000000    -0.738000000     2.096000000
H    -5.468000000    -1.874000000     2.924000000
O     3.069000000    -4.871000000    -3.177000000
H     3.876000000    -4.583000000    -3.603000000
H     2.842000000    -5.689000000    -3.620000000
O     4.626000000     2.533000000     2.213000000
H     4.157000000     3.052000000     2.868000000
H     4.179000000     2.728000000     1.389000000
O     2.948000000     6.389000000     0.779000000
H     2.200000000     6.726000000     0.285000000
H     2.651000000     6.386000000     1.689000000
O    -0.244000000     3.562000000     5.721000000
H     0.052000000     3.737000000     4.828000000
H    -1.063000000     3.079000000     5.612000000
O    -6.202000000    -0.465000000     0.345000000
H    -5.499000000     0.018000000    -0.090000000
H    -6.414000000    -1.176000000    -0.260000000
O     3.040000000    -2.843000000    -1.271000000
H     2.600000000    -3.563000000    -1.723000000
H     3.879000000    -2.753000000    -1.724000000
O     4.015000000     0.179000000     5.122000000
H     3.441000000     0.761000000     4.624000000
H     3.722000000    -0.702000000     4.890000000
O     0.187000000     3.504000000    -3.056000000
H     0.639000000     3.410000000    -3.894000000
H     0.873000000     3.388000000    -2.399000000
O     0.425000000    -3.119000000    -5.196000000
H     1.225000000    -2.610000000    -5.325000000
H    -0.179000000    -2.511000000    -4.768000000
O    -6.158000000     3.652000000     0.421000000
H    -5.509000000     3.095000000    -0.008000000
H    -5.699000000     4.018000000     1.177000000
O    -7.187000000    -2.606000000    -2.503000000
H    -6.556000000    -1.895000000    -2.618000000
H    -8.040000000    -2.172000000    -2.504000000
O    -2.104000000    -1.851000000     4.100000000
H    -2.738000000    -2.074000000     3.417000000
H    -1.323000000    -2.358000000     3.876000000
O     0.281000000    -6.670000000    -0.966000000
H    -0.606000000    -6.740000000    -0.613000000
H     0.176000000    -6.798000000    -1.908000000
O     2.126000000     1.798000000     4.004000000
H     1.301000000     1.313000000     3.961000000
H     2.244000000     2.147000000     3.120000000
O     4.036000000    -2.115000000     1.347000000
H     4.385000000    -1.224000000     1.381000000
H     3.869000000    -2.271000000     0.418000000
O     0.740000000    -0.548000000    -3.650000000
H     1.600000000    -0.902000000    -3.874000000
H     0.599000000    -0.818000000    -2.742000000
O    -2.888000000    -3.952000000    -4.127000000
H    -2.905000000    -3.009000000    -3.962000000
H    -3.656000000    -4.112000000    -4.676000000
O     7.696000000     1.927000000    -1.246000000
H     7.219000000     2.588000000    -1.748000000
H     7.232000000     1.110000000    -1.425000000
O     3.025000000    -1.797000000    -4.858000000
H     3.889000000    -2.002000000    -4.501000000
H     3.145000000    -1.822000000    -5.808000000
