144
-2806.54748
O    -3.133000000    -2.852000000    -5.610000000
H    -2.783000000    -1.990000000    -5.834000000
H    -3.125000000    -3.336000000    -6.436000000
O    -1.268000000     4.463000000     3.337000000
H    -0.791000000     3.633000000     3.334000000
H    -1.619000000     4.534000000     4.225000000
O     4.088000000     5.168000000     5.044000000
H     3.502000000     5.881000000     4.788000000
H     4.305000000     4.730000000     4.221000000
O     7.048000000     3.076000000     3.230000000
H     6.106000000     3.223000000     3.146000000
H     7.360000000     3.000000000     2.328000000
O    -4.420000000     4.596000000    -1.249000000
H    -4.704000000     5.510000000    -1.215000000
H    -3.580000000     4.589000000    -0.790000000
O     0.633000000     2.477000000    -3.427000000
H     1.241000000     3.114000000    -3.804000000
H     1.160000000     1.988000000    -2.795000000
O     4.186000000    -1.553000000    -1.596000000
H     3.441000000    -1.870000000    -2.107000000
H     4.916000000    -1.549000000    -2.215000000
O    -2.882000000    -5.620000000    -0.529000000
H    -3.000000000    -6.359000000    -1.127000000
H    -3.455000000    -5.817000000     0.211000000
O    -1.992000000     4.559000000     0.845000000
H    -1.784000000     4.534000000     1.779000000
H    -1.355000000     5.170000000     0.474000000
O     1.915000000    -2.946000000    -2.254000000
H     1.378000000    -3.737000000    -2.302000000
H     2.215000000    -2.916000000    -1.345000000
O    -5.065000000    -1.950000000    -3.297000000
H    -4.691000000    -2.263000000    -2.474000000
H    -4.477000000    -2.290000000    -3.972000000
O     4.170000000     2.372000000    -4.403000000
H     3.932000000     1.884000000    -3.615000000
H     4.151000000     3.290000000    -4.132000000
O    -2.723000000     0.274000000     2.382000000
H    -3.305000000     0.662000000     1.728000000
H    -1.856000000     0.618000000     2.166000000
O     7.889000000    -0.642000000     0.718000000
H     7.868000000    -0.481000000    -0.226000000
H     7.476000000    -1.499000000     0.824000000
O    -4.624000000    -3.242000000    -0.715000000
H    -4.442000000    -4.176000000    -0.610000000
H    -4.075000000    -2.815000000    -0.057000000
O     5.993000000    -2.976000000     3.289000000
H     5.389000000    -2.629000000     2.632000000
H     6.531000000    -3.606000000     2.810000000
O    -0.034000000     6.413000000    -0.372000000
H     0.642000000     5.938000000     0.112000000
H     0.452000000     6.988000000    -0.962000000
O     3.256000000     1.393000000    -1.981000000
H     3.833000000     1.374000000    -1.217000000
H     2.861000000     0.521000000    -2.004000000
O     2.145000000     7.731000000     1.257000000
H     2.657000000     7.852000000     0.457000000
H     2.143000000     6.785000000     1.400000000
O    -0.295000000    -4.648000000     2.951000000
H     0.475000000    -4.211000000     3.314000000
H     0.062000000    -5.344000000     2.400000000
O    -3.031000000    -4.229000000    -3.484000000
H    -2.926000000    -3.661000000    -4.248000000
H    -3.964000000    -4.440000000    -3.470000000
O    -1.091000000     4.610000000    -4.245000000
H    -0.698000000     3.804000000    -3.910000000
H    -1.554000000     4.338000000    -5.038000000
O     3.374000000     2.546000000     5.592000000
H     3.979000000     3.270000000     5.435000000
H     2.571000000     2.967000000     5.899000000
O    -3.714000000    -1.851000000     3.494000000
H    -3.292000000    -1.057000000     3.164000000
H    -3.358000000    -2.554000000     2.950000000
O    -0.588000000     0.643000000    -5.378000000
H    -0.603000000     0.880000000    -4.451000000
H     0.051000000     1.241000000    -5.767000000
O    -6.804000000    -2.259000000     1.450000000
H    -6.934000000    -3.207000000     1.440000000
H    -6.821000000    -2.004000000     0.528000000
O     3.524000000    -6.043000000    -1.544000000
H     3.852000000    -5.755000000    -2.396000000
H     2.572000000    -5.972000000    -1.617000000
O     1.909000000    -3.635000000     4.579000000
H     2.555000000    -3.470000000     5.265000000
H     1.388000000    -2.833000000     4.543000000
O    -6.191000000     0.331000000    -3.969000000
H    -5.830000000    -0.525000000    -3.738000000
H    -6.109000000     0.849000000    -3.168000000
O     4.322000000     3.818000000     2.820000000
H     3.558000000     3.242000000     2.770000000
H     4.564000000     3.974000000     1.908000000
O     5.986000000     1.368000000     0.241000000
H     6.482000000     0.665000000     0.662000000
H     5.097000000     1.271000000     0.582000000
O     0.452000000     0.884000000     6.758000000
H     0.592000000     0.944000000     5.813000000
H     0.696000000     1.747000000     7.092000000
O     0.804000000    -5.317000000    -1.574000000
H     0.127000000    -5.639000000    -2.169000000
H     0.580000000    -5.700000000    -0.726000000
O    -3.525000000     2.362000000     0.990000000
H    -3.966000000     2.786000000     1.725000000
H    -2.850000000     2.986000000     0.723000000
O     4.835000000    -2.254000000     0.896000000
H     4.737000000    -3.204000000     0.825000000
H     4.640000000    -1.927000000     0.018000000
O     3.610000000     0.023000000     5.106000000
H     3.288000000     0.910000000     5.270000000
H     4.052000000     0.082000000     4.259000000
O    -1.139000000    -6.067000000    -3.328000000
H    -1.564000000    -5.237000000    -3.110000000
H    -1.863000000    -6.684000000    -3.438000000
O     1.986000000     4.918000000     0.675000000
H     2.933000000     4.938000000     0.532000000
H     1.863000000     4.277000000     1.375000000
O    -0.090000000    -3.723000000    -5.859000000
H    -0.970000000    -3.425000000    -6.091000000
H    -0.202000000    -4.165000000    -5.017000000
O     0.749000000    -6.348000000     1.213000000
H     0.175000000    -7.013000000     0.834000000
H     1.525000000    -6.834000000     1.494000000
O    -7.290000000    -0.566000000    -1.006000000
H    -8.022000000    -0.150000000    -0.550000000
H    -6.604000000     0.101000000    -1.017000000
O    -0.277000000    -1.499000000     3.338000000
H    -1.101000000    -1.982000000     3.405000000
H    -0.055000000    -1.533000000     2.408000000
O    -2.498000000    -3.487000000     1.828000000
H    -2.547000000    -3.942000000     0.987000000
H    -1.753000000    -3.889000000     2.275000000
O     0.201000000     1.766000000     3.781000000
H    -0.041000000     0.885000000     3.496000000
H     1.092000000     1.888000000     3.452000000
O     5.270000000    -0.005000000     2.657000000
H     4.658000000     0.400000000     2.042000000
H     5.504000000    -0.838000000     2.247000000
O     5.229000000     4.133000000     0.276000000
H     5.549000000     4.608000000    -0.491000000
H     5.622000000     3.263000000     0.199000000
O    -5.475000000     1.498000000    -1.077000000
H    -5.581000000     2.408000000    -1.353000000
H    -4.806000000     1.533000000    -0.392000000
O     1.801000000    -0.449000000    -3.631000000
H     1.616000000    -1.230000000    -3.109000000
H     1.154000000    -0.474000000    -4.337000000
