144
-2809.36317
O    -2.614000000    -5.619000000    -2.040000000
H    -2.683000000    -5.411000000    -1.108000000
H    -2.103000000    -6.428000000    -2.068000000
O    -0.086000000     4.689000000    -3.608000000
H    -0.918000000     4.293000000    -3.350000000
H     0.578000000     4.175000000    -3.149000000
O    -2.153000000    -0.845000000    -7.212000000
H    -2.249000000    -0.222000000    -7.932000000
H    -1.545000000    -0.421000000    -6.607000000
O    -0.056000000     5.011000000    -0.356000000
H     0.363000000     5.744000000     0.094000000
H     0.666000000     4.426000000    -0.585000000
O     3.694000000    -1.569000000    -0.110000000
H     4.165000000    -1.079000000     0.564000000
H     3.491000000    -2.409000000     0.302000000
O    -2.070000000     2.693000000     2.947000000
H    -2.064000000     2.696000000     3.904000000
H    -1.730000000     1.830000000     2.708000000
O     1.169000000    -2.641000000     4.527000000
H     1.771000000    -2.077000000     5.013000000
H     0.485000000    -2.049000000     4.214000000
O    -4.616000000    -1.904000000    -3.634000000
H    -3.692000000    -1.706000000    -3.482000000
H    -5.089000000    -1.259000000    -3.109000000
O     2.664000000     0.796000000    -1.155000000
H     2.006000000     0.259000000    -0.711000000
H     3.391000000     0.195000000    -1.319000000
O     3.120000000     2.453000000     6.526000000
H     2.848000000     2.684000000     5.638000000
H     3.762000000     3.122000000     6.762000000
O    -1.901000000    -5.623000000    -4.727000000
H    -1.662000000    -4.698000000    -4.778000000
H    -2.178000000    -5.749000000    -3.819000000
O    -1.827000000    -5.822000000     0.723000000
H    -1.454000000    -5.944000000     1.596000000
H    -1.580000000    -6.614000000     0.245000000
O     1.766000000     3.478000000    -1.552000000
H     1.978000000     2.586000000    -1.275000000
H     2.578000000     3.968000000    -1.424000000
O     0.443000000     2.825000000    -5.644000000
H     0.448000000     3.668000000    -5.191000000
H    -0.190000000     2.938000000    -6.353000000
O    -4.015000000    -4.340000000     1.211000000
H    -3.125000000    -4.646000000     1.041000000
H    -4.085000000    -4.321000000     2.165000000
O    -2.873000000     5.609000000    -4.816000000
H    -2.889000000     4.684000000    -4.569000000
H    -2.499000000     6.053000000    -4.055000000
O    -4.540000000     3.384000000    -1.013000000
H    -5.326000000     3.480000000    -0.474000000
H    -3.832000000     3.724000000    -0.466000000
O     0.330000000     4.770000000     3.040000000
H    -0.515000000     4.352000000     3.208000000
H     0.321000000     5.555000000     3.588000000
O    -6.237000000     1.990000000    -5.612000000
H    -6.409000000     2.810000000    -5.149000000
H    -5.383000000     1.706000000    -5.286000000
O    -4.500000000    -2.224000000    -6.223000000
H    -4.641000000    -2.072000000    -5.289000000
H    -3.624000000    -1.878000000    -6.394000000
O     2.611000000    -2.581000000    -2.447000000
H     2.751000000    -2.077000000    -1.645000000
H     2.471000000    -3.478000000    -2.144000000
O     4.161000000    -0.981000000     4.599000000
H     4.933000000    -1.381000000     5.000000000
H     3.551000000    -0.857000000     5.325000000
O     1.523000000    -1.695000000    -5.224000000
H     1.784000000    -1.778000000    -4.307000000
H     0.760000000    -1.117000000    -5.204000000
O     4.400000000     4.073000000    -0.702000000
H     4.621000000     3.634000000     0.120000000
H     5.226000000     4.106000000    -1.185000000
O     1.099000000    -5.887000000     2.985000000
H     1.661000000    -5.861000000     3.759000000
H     1.206000000    -5.026000000     2.582000000
O     2.551000000    -5.262000000    -1.464000000
H     2.815000000    -6.181000000    -1.509000000
H     1.654000000    -5.287000000    -1.129000000
O     4.438000000     4.652000000     3.546000000
H     4.335000000     5.545000000     3.876000000
H     5.349000000     4.429000000     3.737000000
O     5.476000000    -0.732000000     2.113000000
H     4.919000000    -0.919000000     2.868000000
H     6.297000000    -1.188000000     2.302000000
O    -6.528000000    -0.238000000    -0.669000000
H    -6.628000000     0.295000000     0.119000000
H    -6.183000000     0.368000000    -1.326000000
O    -2.459000000     3.424000000    -3.332000000
H    -2.315000000     2.481000000    -3.259000000
H    -3.285000000     3.576000000    -2.873000000
O     2.137000000    -0.580000000     6.608000000
H     2.289000000    -0.936000000     7.484000000
H     2.394000000     0.340000000     6.676000000
O     4.877000000     2.368000000     1.459000000
H     4.177000000     2.427000000     2.110000000
H     5.397000000     1.614000000     1.734000000
O    -4.999000000    -4.112000000    -2.166000000
H    -5.070000000    -3.517000000    -2.912000000
H    -4.084000000    -4.391000000    -2.167000000
O     3.818000000     2.188000000    -3.599000000
H     3.411000000     1.790000000    -2.830000000
H     4.758000000     2.071000000    -3.461000000
O     3.266000000    -5.083000000     4.862000000
H     2.813000000    -5.658000000     5.478000000
H     2.748000000    -4.277000000     4.861000000
O    -1.996000000     6.277000000    -2.127000000
H    -1.223000000     6.001000000    -2.620000000
H    -1.812000000     6.012000000    -1.226000000
O    -4.436000000    -1.655000000     0.717000000
H    -5.213000000    -1.338000000     0.256000000
H    -4.366000000    -2.575000000     0.463000000
O    -2.481000000     0.063000000     1.988000000
H    -3.129000000    -0.456000000     1.511000000
H    -1.733000000     0.117000000     1.393000000
O     3.629000000    -3.936000000     0.941000000
H     3.638000000    -4.492000000     0.162000000
H     3.948000000    -4.503000000     1.643000000
O    -5.105000000     1.102000000    -2.339000000
H    -4.191000000     0.906000000    -2.543000000
H    -5.080000000     1.967000000    -1.931000000
O     2.356000000     3.229000000     4.022000000
H     1.707000000     3.684000000     3.486000000
H     3.174000000     3.697000000     3.855000000
O     0.730000000     4.449000000     6.538000000
H     1.052000000     4.178000000     5.678000000
H     0.095000000     5.140000000     6.349000000
O    -0.765000000     0.062000000    -5.072000000
H    -0.339000000     0.917000000    -5.004000000
H    -1.370000000     0.036000000    -4.331000000
O    -1.388000000    -3.012000000    -4.920000000
H    -1.704000000    -2.519000000    -4.163000000
H    -1.512000000    -2.418000000    -5.661000000
O    -2.530000000     3.995000000     0.622000000
H    -2.126000000     3.702000000     1.438000000
H    -1.791000000     4.214000000     0.054000000
O    -1.208000000    -1.521000000     4.112000000
H    -1.417000000    -0.851000000     3.461000000
H    -1.296000000    -1.073000000     4.953000000
O    -3.503000000     1.543000000    -5.149000000
H    -3.390000000     1.065000000    -4.327000000
H    -2.693000000     1.383000000    -5.633000000
O     6.983000000     0.114000000    -0.036000000
H     6.549000000    -0.144000000     0.778000000
H     6.266000000     0.300000000    -0.641000000
