144
-2853.53607
O     4.400000000     1.086000000     0.209000000
H     4.069000000     1.982000000     0.146000000
H     4.943000000     0.976000000    -0.572000000
O    -3.694000000     3.270000000    -0.695000000
H    -4.224000000     2.585000000    -1.102000000
H    -3.222000000     3.672000000    -1.424000000
O     3.818000000     0.740000000     7.168000000
H     4.006000000     0.929000000     6.249000000
H     4.582000000     0.252000000     7.474000000
O     5.791000000     2.038000000     2.685000000
H     6.553000000     1.610000000     3.074000000
H     5.387000000     1.361000000     2.142000000
O     0.321000000     5.003000000     1.700000000
H    -0.575000000     4.676000000     1.784000000
H     0.871000000     4.231000000     1.834000000
O     4.734000000    -2.081000000    -1.120000000
H     5.340000000    -2.192000000    -1.853000000
H     4.181000000    -1.343000000    -1.376000000
O    -4.391000000    -2.071000000    -3.108000000
H    -3.777000000    -1.600000000    -3.673000000
H    -5.166000000    -1.510000000    -3.078000000
O     3.071000000     3.395000000    -0.084000000
H     2.409000000     3.167000000     0.569000000
H     3.565000000     4.111000000     0.316000000
O     0.313000000     5.752000000    -1.240000000
H     1.084000000     6.281000000    -1.036000000
H    -0.208000000     5.768000000    -0.437000000
O     1.077000000    -1.372000000     4.576000000
H     0.201000000    -1.548000000     4.232000000
H     1.431000000    -0.698000000     3.996000000
O    -2.169000000     4.092000000     1.853000000
H    -2.431000000     3.498000000     2.556000000
H    -2.682000000     3.809000000     1.096000000
O    -4.425000000    -3.731000000    -5.553000000
H    -4.314000000    -3.002000000    -4.943000000
H    -4.716000000    -4.460000000    -5.004000000
O     5.121000000     4.505000000     1.527000000
H     5.355000000     3.636000000     1.852000000
H     5.958000000     4.958000000     1.430000000
O    -2.505000000    -3.901000000     0.886000000
H    -2.301000000    -4.702000000     1.368000000
H    -2.550000000    -4.177000000    -0.029000000
O     4.517000000     5.046000000     5.333000000
H     3.988000000     4.267000000     5.166000000
H     4.143000000     5.424000000     6.129000000
O     5.819000000    -0.756000000     4.453000000
H     5.272000000    -0.699000000     3.670000000
H     5.750000000    -1.671000000     4.727000000
O    -0.366000000    -4.623000000    -2.563000000
H     0.356000000    -4.138000000    -2.962000000
H    -1.149000000    -4.128000000    -2.805000000
O     0.224000000    -4.999000000     5.045000000
H    -0.326000000    -4.266000000     5.321000000
H     0.709000000    -4.663000000     4.291000000
O    -3.309000000     2.075000000     3.139000000
H    -2.994000000     1.765000000     3.988000000
H    -3.185000000     1.330000000     2.550000000
O    -3.176000000    -1.143000000    -5.323000000
H    -3.794000000    -0.469000000    -5.607000000
H    -2.939000000    -1.605000000    -6.127000000
O     1.092000000     7.727000000     1.358000000
H     1.936000000     7.895000000     1.778000000
H     0.920000000     6.801000000     1.527000000
O    -2.779000000    -0.238000000     1.277000000
H    -3.188000000     0.077000000     0.471000000
H    -1.919000000    -0.556000000     1.000000000
O    -2.034000000     1.512000000     5.757000000
H    -2.609000000     1.908000000     6.412000000
H    -1.150000000     1.680000000     6.082000000
O     0.717000000     6.085000000    -4.029000000
H     0.610000000     5.541000000    -4.810000000
H     0.793000000     5.458000000    -3.310000000
O    -3.638000000    -4.449000000    -1.480000000
H    -3.755000000    -4.984000000    -2.265000000
H    -3.908000000    -3.570000000    -1.748000000
O    -3.052000000     2.262000000    -3.884000000
H    -2.595000000     2.880000000    -3.313000000
H    -2.386000000     1.977000000    -4.510000000
O     4.014000000    -0.372000000     2.418000000
H     3.246000000     0.084000000     2.761000000
H     4.100000000    -0.054000000     1.519000000
O    -1.172000000    -2.609000000     2.945000000
H    -1.944000000    -2.089000000     3.164000000
H    -1.458000000    -3.173000000     2.226000000
O     0.245000000    -5.534000000     0.302000000
H     0.120000000    -5.311000000    -0.621000000
H     0.924000000    -4.932000000     0.605000000
O     2.588000000    -3.908000000     0.418000000
H     2.800000000    -4.692000000    -0.089000000
H     3.069000000    -3.204000000    -0.017000000
O    -1.488000000    -6.856000000    -3.811000000
H    -1.137000000    -6.163000000    -3.251000000
H    -0.952000000    -7.622000000    -3.608000000
O     2.913000000    -3.603000000     5.183000000
H     2.231000000    -2.948000000     5.036000000
H     3.230000000    -3.820000000     4.307000000
O     6.215000000    -1.617000000     1.143000000
H     5.546000000    -1.183000000     1.673000000
H     5.747000000    -1.912000000     0.362000000
O    -1.809000000     4.483000000    -2.794000000
H    -2.167000000     5.114000000    -3.418000000
H    -0.997000000     4.886000000    -2.485000000
O     2.345000000    -1.008000000    -1.889000000
H     1.748000000    -0.809000000    -1.167000000
H     2.512000000    -0.161000000    -2.301000000
O    -4.749000000    -2.409000000     1.241000000
H    -4.372000000    -1.553000000     1.448000000
H    -3.999000000    -3.003000000     1.222000000
O    -4.929000000     0.927000000    -0.091000000
H    -5.412000000     0.832000000     0.730000000
H    -5.562000000     1.307000000    -0.699000000
O     3.768000000     2.455000000     4.410000000
H     3.125000000     2.236000000     3.735000000
H     4.614000000     2.382000000     3.968000000
O     3.571000000    -4.463000000     2.809000000
H     3.012000000    -4.160000000     2.093000000
H     4.462000000    -4.370000000     2.472000000
O    -1.597000000    -5.795000000     2.509000000
H    -1.279000000    -6.139000000     3.344000000
H    -0.902000000    -6.001000000     1.885000000
O     1.770000000     6.661000000     4.529000000
H     2.378000000     6.685000000     3.790000000
H     1.432000000     5.766000000     4.532000000
O     0.861000000     3.829000000     4.471000000
H     1.092000000     3.404000000     3.645000000
H     0.833000000     3.115000000     5.108000000
O     0.799000000     1.713000000     6.123000000
H     0.772000000     0.922000000     5.585000000
H     1.731000000     1.862000000     6.284000000
O    -0.660000000     0.283000000    -4.998000000
H    -0.054000000    -0.456000000    -4.943000000
H    -1.526000000    -0.109000000    -4.890000000
O     0.517000000     2.719000000    -4.878000000
H     0.792000000     2.562000000    -3.975000000
H     0.150000000     1.883000000    -5.166000000
O     1.424000000     3.298000000    -2.111000000
H     2.224000000     3.223000000    -1.591000000
H     0.922000000     3.991000000    -1.681000000
O     1.644000000    -2.753000000    -3.788000000
H     2.050000000    -2.407000000    -4.583000000
H     1.946000000    -2.170000000    -3.092000000
O    -6.400000000    -0.291000000    -3.852000000
H    -6.624000000     0.637000000    -3.792000000
H    -6.844000000    -0.594000000    -4.645000000
