144
-2809.12813
O     3.893000000    -0.428000000    -1.721000000
H     3.900000000     0.297000000    -2.347000000
H     4.752000000    -0.389000000    -1.300000000
O    -2.097000000     1.339000000     1.525000000
H    -1.598000000     0.693000000     1.025000000
H    -2.318000000     2.017000000     0.887000000
O     3.163000000     3.417000000    -0.317000000
H     2.753000000     3.188000000     0.517000000
H     4.067000000     3.115000000    -0.231000000
O     2.430000000     5.013000000     2.495000000
H     2.136000000     4.130000000     2.271000000
H     2.504000000     5.006000000     3.449000000
O     4.351000000    -1.222000000     0.971000000
H     3.710000000    -1.010000000     0.293000000
H     4.993000000    -1.777000000     0.529000000
O     3.338000000    -4.133000000     1.085000000
H     3.506000000    -4.648000000     1.874000000
H     3.246000000    -3.234000000     1.401000000
O     2.134000000    -3.920000000    -6.047000000
H     1.402000000    -3.325000000    -5.886000000
H     1.724000000    -4.726000000    -6.360000000
O     1.740000000     4.025000000    -2.685000000
H     2.238000000     3.701000000    -1.935000000
H     0.830000000     4.019000000    -2.388000000
O     5.491000000     5.108000000     1.887000000
H     5.815000000     4.849000000     2.749000000
H     4.541000000     5.157000000     1.992000000
O    -3.226000000     3.636000000    -3.581000000
H    -3.146000000     2.794000000    -3.133000000
H    -4.141000000     3.887000000    -3.456000000
O    -0.584000000     6.321000000     3.132000000
H     0.363000000     6.331000000     3.267000000
H    -0.784000000     5.412000000     2.909000000
O     0.778000000    -6.623000000     1.694000000
H     0.027000000    -6.066000000     1.901000000
H     1.056000000    -6.336000000     0.824000000
O    -2.827000000     3.438000000    -0.045000000
H    -2.144000000     3.640000000    -0.685000000
H    -3.023000000     4.279000000     0.369000000
O    -1.165000000    -5.174000000     3.018000000
H    -1.397000000    -5.250000000     3.944000000
H    -1.888000000    -4.681000000     2.630000000
O     2.756000000     5.101000000     5.116000000
H     2.319000000     4.998000000     5.961000000
H     3.684000000     4.962000000     5.307000000
O     3.248000000     6.254000000    -0.392000000
H     2.882000000     5.422000000    -0.093000000
H     4.087000000     6.019000000    -0.786000000
O    -5.910000000    -0.527000000    -2.703000000
H    -6.728000000    -0.732000000    -2.250000000
H    -5.713000000    -1.315000000    -3.208000000
O     1.785000000    -2.509000000     4.165000000
H     1.642000000    -1.786000000     4.776000000
H     2.606000000    -2.907000000     4.453000000
O    -3.231000000    -5.343000000    -3.570000000
H    -2.923000000    -5.943000000    -2.891000000
H    -2.431000000    -4.957000000    -3.929000000
O     5.704000000     2.719000000    -0.020000000
H     6.047000000     2.835000000     0.866000000
H     5.959000000     1.828000000    -0.261000000
O     3.700000000    -3.070000000    -3.581000000
H     3.080000000    -2.670000000    -2.971000000
H     3.194000000    -3.203000000    -4.383000000
O     6.645000000    -0.018000000     4.960000000
H     6.978000000    -0.844000000     4.610000000
H     5.817000000     0.121000000     4.500000000
O    -0.285000000    -3.569000000     6.297000000
H    -0.685000000    -3.396000000     5.445000000
H     0.037000000    -2.716000000     6.588000000
O    -4.414000000     1.193000000     3.081000000
H    -3.967000000     1.854000000     3.610000000
H    -3.747000000     0.888000000     2.466000000
O    -2.885000000     1.835000000     5.367000000
H    -2.018000000     1.581000000     5.051000000
H    -2.715000000     2.542000000     5.989000000
O    -0.541000000     0.682000000     4.580000000
H     0.363000000     0.850000000     4.313000000
H    -0.794000000    -0.100000000     4.090000000
O     0.771000000    -1.221000000     7.487000000
H     0.858000000    -0.268000000     7.507000000
H     1.448000000    -1.536000000     8.087000000
O    -5.511000000    -3.239000000    -3.458000000
H    -6.345000000    -3.653000000    -3.236000000
H    -4.867000000    -3.944000000    -3.386000000
O    -3.219000000    -1.175000000    -5.205000000
H    -2.853000000    -1.707000000    -4.498000000
H    -2.462000000    -0.730000000    -5.586000000
O     4.513000000     0.157000000     3.381000000
H     3.643000000     0.547000000     3.460000000
H     4.557000000    -0.150000000     2.476000000
O    -1.579000000    -4.828000000    -0.044000000
H    -0.763000000    -4.503000000    -0.424000000
H    -1.482000000    -5.781000000    -0.047000000
O     0.991000000    -5.464000000    -3.356000000
H     0.148000000    -5.110000000    -3.641000000
H     1.608000000    -5.183000000    -4.031000000
O     5.045000000    -1.384000000     7.003000000
H     4.389000000    -0.747000000     6.719000000
H     5.872000000    -0.903000000     6.977000000
O    -3.505000000    -1.034000000     4.717000000
H    -2.634000000    -1.417000000     4.822000000
H    -3.339000000    -0.120000000     4.487000000
O     0.311000000     1.008000000    -4.999000000
H    -0.234000000     1.793000000    -5.063000000
H     1.209000000     1.340000000    -4.988000000
O     1.685000000    -1.731000000    -2.101000000
H     1.247000000    -1.506000000    -1.280000000
H     2.521000000    -1.266000000    -2.062000000
O    -2.844000000    -3.275000000     1.781000000
H    -2.422000000    -3.906000000     1.198000000
H    -3.426000000    -2.773000000     1.210000000
O     4.613000000     3.035000000     3.713000000
H     3.812000000     2.977000000     3.192000000
H     5.144000000     2.295000000     3.418000000
O     1.029000000    -5.290000000    -0.606000000
H     1.038000000    -5.440000000    -1.552000000
H     1.626000000    -4.553000000    -0.475000000
O    -0.662000000     3.738000000     2.422000000
H    -1.163000000     2.965000000     2.162000000
H     0.066000000     3.389000000     2.937000000
O    -0.499000000     1.236000000     7.263000000
H     0.209000000     1.879000000     7.309000000
H    -0.518000000     0.966000000     6.345000000
O     3.448000000     0.851000000     5.900000000
H     3.488000000     1.718000000     6.306000000
H     3.013000000     1.000000000     5.061000000
O    -5.789000000     0.059000000    -5.459000000
H    -5.847000000     0.050000000    -4.503000000
H    -4.920000000    -0.295000000    -5.649000000
O    -0.956000000    -4.110000000    -5.085000000
H    -0.492000000    -3.285000000    -5.229000000
H    -1.137000000    -4.439000000    -5.965000000
O    -3.992000000     1.356000000    -2.572000000
H    -3.830000000     1.605000000    -1.662000000
H    -4.710000000     0.724000000    -2.523000000
O     0.588000000    -1.848000000    -4.890000000
H     0.460000000    -0.904000000    -4.978000000
H     0.742000000    -1.983000000    -3.955000000
O    -0.928000000     4.368000000    -1.924000000
H    -1.598000000     3.901000000    -2.423000000
H    -0.959000000     5.264000000    -2.260000000
O    -1.002000000    -2.288000000     3.897000000
H    -0.199000000    -2.807000000     3.844000000
H    -1.503000000    -2.541000000     3.122000000
