144
-2813.60988
O    -2.841000000    -5.149000000    -1.301000000
H    -2.327000000    -4.947000000    -0.519000000
H    -2.217000000    -5.562000000    -1.898000000
O     1.122000000     6.384000000    -4.135000000
H     0.363000000     5.826000000    -3.963000000
H     1.408000000     6.671000000    -3.268000000
O     0.024000000     0.560000000    -7.729000000
H     0.325000000     1.334000000    -7.252000000
H    -0.541000000     0.101000000    -7.108000000
O     4.289000000     0.661000000    -0.095000000
H     4.516000000     0.984000000     0.777000000
H     4.392000000    -0.289000000    -0.033000000
O     5.042000000     2.304000000    -2.237000000
H     4.737000000     1.755000000    -1.515000000
H     5.778000000     1.819000000    -2.612000000
O    -1.227000000     3.133000000     2.845000000
H    -1.591000000     3.140000000     3.730000000
H    -1.415000000     2.254000000     2.515000000
O     2.836000000    -0.673000000     5.770000000
H     2.385000000    -0.285000000     6.520000000
H     3.501000000    -0.028000000     5.530000000
O    -4.324000000    -0.504000000    -1.958000000
H    -3.697000000    -0.211000000    -2.619000000
H    -5.170000000    -0.185000000    -2.272000000
O     1.048000000    -5.768000000     5.958000000
H     0.409000000    -5.769000000     6.671000000
H     1.165000000    -4.842000000     5.744000000
O     2.545000000     0.283000000    -2.148000000
H     3.114000000    -0.047000000    -1.452000000
H     1.879000000     0.795000000    -1.690000000
O     3.875000000    -4.359000000     1.869000000
H     2.968000000    -4.661000000     1.921000000
H     4.159000000    -4.293000000     2.780000000
O    -3.419000000    -3.268000000    -3.237000000
H    -2.484000000    -3.296000000    -3.440000000
H    -3.508000000    -3.798000000    -2.445000000
O    -2.379000000    -3.158000000     2.386000000
H    -2.346000000    -3.537000000     3.264000000
H    -2.010000000    -3.834000000     1.818000000
O     1.749000000     7.041000000    -1.496000000
H     1.723000000     6.554000000    -0.672000000
H     2.099000000     7.898000000    -1.255000000
O     0.084000000     3.458000000    -6.498000000
H    -0.537000000     3.755000000    -7.162000000
H    -0.009000000     4.088000000    -5.783000000
O    -1.198000000    -4.079000000    -6.199000000
H    -1.388000000    -3.639000000    -7.027000000
H    -1.071000000    -3.367000000    -5.572000000
O    -3.161000000     4.905000000    -0.828000000
H    -2.309000000     4.493000000    -0.686000000
H    -3.571000000     4.911000000     0.037000000
O     0.763000000     4.897000000     3.302000000
H     0.314000000     4.077000000     3.093000000
H     0.363000000     5.186000000     4.122000000
O    -6.997000000     3.228000000    -3.031000000
H    -6.088000000     3.037000000    -2.798000000
H    -7.314000000     3.787000000    -2.322000000
O    -5.377000000    -0.489000000    -5.746000000
H    -5.258000000    -1.384000000    -5.427000000
H    -6.326000000    -0.374000000    -5.788000000
O     5.893000000    -2.118000000    -1.582000000
H     6.816000000    -1.888000000    -1.474000000
H     5.517000000    -2.016000000    -0.707000000
O    -0.012000000    -5.232000000    -1.560000000
H     0.352000000    -4.983000000    -2.410000000
H     0.423000000    -6.058000000    -1.347000000
O     4.938000000     1.041000000     5.591000000
H     5.868000000     0.827000000     5.670000000
H     4.783000000     1.690000000     6.277000000
O     1.590000000    -0.846000000    -4.296000000
H     1.874000000    -0.424000000    -3.484000000
H     1.135000000    -0.156000000    -4.778000000
O     1.260000000    -3.269000000     5.120000000
H     1.812000000    -2.489000000     5.170000000
H     0.369000000    -2.940000000     5.239000000
O    -1.297000000    -2.165000000     5.899000000
H    -0.646000000    -2.127000000     6.599000000
H    -1.903000000    -1.451000000     6.096000000
O     5.277000000     1.350000000     2.543000000
H     4.915000000     1.241000000     3.423000000
H     6.024000000     1.937000000     2.662000000
O     4.704000000    -4.683000000     4.569000000
H     4.498000000    -3.864000000     5.020000000
H     5.456000000    -5.035000000     5.046000000
O    -5.471000000     1.599000000     0.185000000
H    -4.966000000     1.969000000    -0.540000000
H    -5.411000000     0.652000000     0.059000000
O    -1.232000000     4.557000000    -4.159000000
H    -2.016000000     4.469000000    -4.702000000
H    -1.270000000     3.811000000    -3.561000000
O     1.461000000     1.444000000     7.312000000
H     2.093000000     1.586000000     8.017000000
H     1.206000000     2.324000000     7.037000000
O    -1.098000000     0.608000000     6.960000000
H    -0.962000000     1.466000000     6.558000000
H    -0.300000000     0.451000000     7.465000000
O    -2.566000000    -4.556000000     4.798000000
H    -3.255000000    -5.043000000     5.250000000
H    -2.258000000    -3.920000000     5.443000000
O    -4.548000000    -2.768000000    -0.402000000
H    -4.367000000    -1.967000000    -0.894000000
H    -3.747000000    -3.287000000    -0.485000000
O     2.798000000     3.029000000    -3.840000000
H     3.540000000     2.861000000    -3.259000000
H     2.087000000     2.497000000    -3.481000000
O     4.533000000    -2.636000000     6.494000000
H     3.988000000    -3.269000000     6.962000000
H     3.936000000    -1.919000000     6.280000000
O     1.090000000    -4.943000000     2.959000000
H     1.530000000    -5.594000000     3.505000000
H     0.955000000    -4.194000000     3.540000000
O    -4.605000000     5.539000000    -2.890000000
H    -5.402000000     5.979000000    -2.594000000
H    -4.094000000     5.406000000    -2.092000000
O    -2.573000000     0.491000000     2.038000000
H    -2.265000000    -0.333000000     1.661000000
H    -3.490000000     0.550000000     1.770000000
O     5.110000000    -1.969000000     1.033000000
H     4.666000000    -2.802000000     1.192000000
H     5.790000000    -1.928000000     1.705000000
O    -4.501000000     2.659000000    -2.136000000
H    -3.793000000     2.090000000    -2.438000000
H    -4.060000000     3.463000000    -1.859000000
O    -2.777000000     3.667000000    -6.377000000
H    -3.322000000     3.533000000    -7.153000000
H    -2.811000000     2.830000000    -5.913000000
O     0.396000000     1.340000000    -4.989000000
H     0.275000000     2.089000000    -5.573000000
H    -0.352000000     1.377000000    -4.393000000
O    -1.125000000    -1.914000000    -4.279000000
H    -1.559000000    -1.183000000    -3.838000000
H    -0.191000000    -1.750000000    -4.151000000
O    -2.562000000     5.636000000     2.336000000
H    -2.071000000     4.817000000     2.387000000
H    -1.892000000     6.319000000     2.361000000
O    -3.194000000     0.200000000     5.232000000
H    -2.883000000     0.401000000     4.349000000
H    -2.458000000     0.425000000     5.801000000
O    -2.948000000     0.923000000    -5.665000000
H    -2.663000000     0.726000000    -4.773000000
H    -3.699000000     0.348000000    -5.809000000
O    -0.834000000    -4.993000000     0.965000000
H    -0.449000000    -5.203000000     0.114000000
H    -0.094000000    -5.001000000     1.572000000
