144
-2805.84607
O     0.805000000    -1.301000000    -6.864000000
H     0.107000000    -1.305000000    -7.519000000
H     1.308000000    -0.509000000    -7.054000000
O     2.629000000    -5.271000000     4.029000000
H     2.476000000    -4.327000000     4.088000000
H     2.383000000    -5.498000000     3.133000000
O     2.123000000    -0.483000000     5.786000000
H     3.066000000    -0.598000000     5.670000000
H     1.822000000    -0.115000000     4.955000000
O    -5.075000000    -0.396000000    -1.051000000
H    -5.386000000    -0.754000000    -0.219000000
H    -4.284000000     0.093000000    -0.820000000
O     0.101000000     4.324000000     0.906000000
H    -0.626000000     3.831000000     0.526000000
H     0.872000000     3.781000000     0.740000000
O    -3.017000000     0.057000000    -5.248000000
H    -2.427000000     0.555000000    -5.814000000
H    -2.452000000    -0.590000000    -4.824000000
O    -2.350000000     3.431000000    -0.206000000
H    -1.916000000     4.224000000    -0.520000000
H    -3.232000000     3.478000000    -0.575000000
O    -2.561000000    -4.752000000     2.459000000
H    -2.316000000    -4.066000000     3.081000000
H    -3.384000000    -5.102000000     2.801000000
O    -1.626000000     2.921000000    -3.860000000
H    -1.864000000     2.126000000    -3.384000000
H    -0.844000000     2.678000000    -4.357000000
O    -1.290000000     3.653000000     3.332000000
H    -2.153000000     4.065000000     3.299000000
H    -0.934000000     3.771000000     2.452000000
O     2.421000000    -1.330000000    -2.157000000
H     1.495000000    -1.150000000    -1.995000000
H     2.700000000    -0.633000000    -2.751000000
O    -3.136000000     0.805000000     0.604000000
H    -2.713000000     1.657000000     0.499000000
H    -2.411000000     0.193000000     0.735000000
O    -0.902000000     4.985000000    -2.277000000
H    -1.012000000     4.214000000    -2.833000000
H     0.010000000     4.946000000    -1.991000000
O     2.829000000     1.707000000     7.429000000
H     1.998000000     2.179000000     7.371000000
H     2.908000000     1.257000000     6.587000000
O    -1.090000000    -4.387000000    -1.361000000
H    -0.671000000    -4.502000000    -2.214000000
H    -0.364000000    -4.370000000    -0.738000000
O    -0.954000000    -2.420000000    -4.832000000
H    -0.325000000    -1.880000000    -5.311000000
H    -0.740000000    -3.318000000    -5.084000000
O    -3.634000000     0.447000000     4.780000000
H    -3.558000000     1.349000000     4.470000000
H    -2.752000000     0.221000000     5.077000000
O     2.960000000    -4.435000000    -1.866000000
H     2.228000000    -4.630000000    -1.281000000
H     2.841000000    -3.515000000    -2.100000000
O     0.269000000     2.979000000     7.264000000
H    -0.516000000     3.327000000     7.686000000
H    -0.053000000     2.568000000     6.461000000
O     1.327000000     4.667000000     5.450000000
H     0.796000000     4.195000000     6.092000000
H     1.715000000     3.980000000     4.909000000
O    -5.459000000     0.611000000    -4.207000000
H    -4.668000000     0.236000000    -4.593000000
H    -5.557000000     1.460000000    -4.637000000
O    -0.357000000    -0.466000000     7.357000000
H     0.543000000    -0.611000000     7.064000000
H    -0.507000000     0.469000000     7.217000000
O    -3.135000000    -2.858000000    -3.380000000
H    -2.242000000    -2.865000000    -3.724000000
H    -3.066000000    -3.284000000    -2.525000000
O     1.701000000    -3.021000000     2.487000000
H     1.066000000    -2.436000000     2.901000000
H     2.517000000    -2.862000000     2.962000000
O     3.820000000    -1.698000000    -5.437000000
H     2.869000000    -1.621000000    -5.511000000
H     3.985000000    -2.640000000    -5.448000000
O     1.322000000     6.786000000     1.515000000
H     1.443000000     7.032000000     0.598000000
H     1.016000000     5.879000000     1.481000000
O     4.099000000    -0.307000000     1.529000000
H     3.418000000     0.015000000     0.937000000
H     4.616000000    -0.909000000     0.994000000
O    -0.696000000     1.714000000     5.373000000
H    -0.831000000     2.401000000     4.720000000
H    -0.368000000     0.968000000     4.870000000
O     1.837000000     4.963000000    -1.926000000
H     2.336000000     4.505000000    -1.250000000
H     2.402000000     4.937000000    -2.699000000
O     0.734000000     2.456000000    -4.851000000
H     0.669000000     2.502000000    -5.805000000
H     1.082000000     3.310000000    -4.593000000
O    -2.576000000    -2.024000000     6.719000000
H    -1.774000000    -1.703000000     7.132000000
H    -3.277000000    -1.743000000     7.307000000
O    -4.633000000     2.816000000    -1.768000000
H    -5.561000000     2.792000000    -1.535000000
H    -4.546000000     2.172000000    -2.471000000
O     4.451000000    -2.156000000    -0.531000000
H     3.566000000    -2.005000000    -0.863000000
H     5.025000000    -1.908000000    -1.256000000
O    -4.364000000    -3.021000000    -5.692000000
H    -3.797000000    -3.021000000    -4.921000000
H    -3.767000000    -2.882000000    -6.428000000
O     2.829000000     1.049000000    -3.940000000
H     2.028000000     1.476000000    -4.244000000
H     3.409000000     1.056000000    -4.702000000
O     3.995000000    -2.934000000     3.700000000
H     4.308000000    -2.567000000     4.527000000
H     4.514000000    -2.488000000     3.029000000
O     1.214000000    -4.325000000     0.118000000
H     1.431000000    -3.630000000     0.740000000
H     1.154000000    -5.115000000     0.655000000
O     2.326000000     2.936000000     3.740000000
H     3.219000000     2.649000000     3.926000000
H     1.816000000     2.127000000     3.704000000
O     4.449000000     1.071000000     3.918000000
H     5.040000000     0.381000000     4.220000000
H     4.040000000     0.709000000     3.132000000
O     5.157000000     2.291000000    -0.550000000
H     5.743000000     1.807000000     0.032000000
H     5.634000000     2.344000000    -1.379000000
O    -1.210000000     1.303000000    -7.071000000
H    -1.851000000     1.769000000    -7.609000000
H    -1.048000000     0.488000000    -7.545000000
O    -3.363000000     3.810000000    -6.198000000
H    -2.527000000     4.275000000    -6.185000000
H    -3.370000000     3.306000000    -5.384000000
O     2.887000000     3.624000000     0.259000000
H     3.579000000     3.048000000    -0.067000000
H     3.068000000     3.710000000     1.195000000
O     0.851000000    -3.070000000     5.738000000
H     1.432000000    -2.309000000     5.731000000
H     0.133000000    -2.828000000     5.152000000
O    -4.633000000    -1.357000000     2.852000000
H    -4.113000000    -2.160000000     2.824000000
H    -4.301000000    -0.883000000     3.614000000
O    -3.330000000    -3.818000000    -0.031000000
H    -2.553000000    -4.013000000    -0.554000000
H    -3.150000000    -4.213000000     0.822000000
O    -5.716000000    -4.204000000    -1.626000000
H    -5.702000000    -3.381000000    -2.114000000
H    -4.988000000    -4.129000000    -1.009000000
O    -2.116000000    -2.460000000     3.905000000
H    -2.423000000    -2.325000000     4.801000000
H    -1.269000000    -2.016000000     3.872000000
