144
-2795.67753
O    -1.921000000     7.619000000     0.869000000
H    -1.496000000     6.810000000     0.585000000
H    -2.103000000     8.091000000     0.057000000
O    -5.399000000    -2.062000000    -4.996000000
H    -4.539000000    -1.755000000    -4.710000000
H    -5.345000000    -2.069000000    -5.951000000
O     5.036000000    -3.722000000     4.767000000
H     5.100000000    -3.302000000     3.910000000
H     4.311000000    -4.341000000     4.676000000
O     3.820000000     1.495000000     5.028000000
H     3.679000000     2.021000000     4.241000000
H     3.206000000     0.765000000     4.942000000
O    -3.007000000    -1.482000000    -3.735000000
H    -2.133000000    -1.109000000    -3.853000000
H    -2.880000000    -2.197000000    -3.111000000
O     1.181000000     3.623000000     2.275000000
H     0.345000000     3.737000000     2.727000000
H     1.409000000     4.501000000     1.969000000
O    -4.392000000     1.792000000    -0.088000000
H    -4.521000000     2.676000000    -0.431000000
H    -4.084000000     1.927000000     0.809000000
O    -2.927000000    -4.364000000     0.767000000
H    -3.112000000    -3.768000000     1.493000000
H    -2.545000000    -5.137000000     1.182000000
O     1.054000000     6.573000000    -1.586000000
H     1.372000000     7.330000000    -2.078000000
H     0.179000000     6.410000000    -1.936000000
O     0.702000000     2.014000000     5.505000000
H     1.182000000     1.276000000     5.129000000
H    -0.161000000     1.972000000     5.095000000
O     3.301000000    -3.642000000    -0.549000000
H     2.755000000    -2.905000000    -0.821000000
H     2.765000000    -4.115000000     0.087000000
O    -2.319000000    -0.187000000     2.341000000
H    -2.908000000     0.567000000     2.380000000
H    -1.744000000    -0.004000000     1.599000000
O     2.314000000     5.958000000     1.562000000
H     3.087000000     6.348000000     1.969000000
H     2.500000000     5.981000000     0.623000000
O     6.057000000    -0.318000000    -0.986000000
H     5.702000000    -1.199000000    -0.863000000
H     6.312000000    -0.290000000    -1.908000000
O     3.966000000     3.963000000    -4.308000000
H     4.045000000     3.789000000    -5.246000000
H     3.703000000     3.124000000    -3.930000000
O    -6.375000000     0.404000000    -1.307000000
H    -5.579000000     0.875000000    -1.062000000
H    -6.977000000     0.556000000    -0.578000000
O     2.397000000    -0.957000000    -3.603000000
H     1.732000000    -1.359000000    -3.043000000
H     3.065000000    -1.634000000    -3.705000000
O    -3.519000000    -2.424000000     2.969000000
H    -2.931000000    -1.715000000     2.706000000
H    -4.387000000    -2.131000000     2.690000000
O    -4.008000000     3.299000000    -4.011000000
H    -3.134000000     3.629000000    -4.219000000
H    -4.058000000     2.454000000    -4.457000000
O    -1.084000000    -6.896000000     2.453000000
H    -0.327000000    -7.473000000     2.548000000
H    -1.032000000    -6.306000000     3.205000000
O     1.217000000     5.094000000    -4.801000000
H     1.380000000     4.593000000    -5.600000000
H     2.056000000     5.092000000    -4.341000000
O    -1.508000000    -0.949000000     4.894000000
H    -0.907000000    -1.081000000     4.161000000
H    -2.357000000    -0.791000000     4.482000000
O    -2.060000000     4.604000000     0.364000000
H    -1.133000000     4.498000000     0.147000000
H    -2.104000000     4.450000000     1.308000000
O     1.642000000    -7.000000000    -1.190000000
H     1.416000000    -6.453000000    -0.438000000
H     1.114000000    -6.649000000    -1.908000000
O    -1.617000000     4.772000000    -4.928000000
H    -0.690000000     4.896000000    -5.129000000
H    -2.078000000     5.254000000    -5.615000000
O     2.494000000    -4.452000000     3.987000000
H     2.359000000    -3.759000000     3.341000000
H     1.730000000    -4.394000000     4.562000000
O     0.768000000    -2.526000000    -2.275000000
H     0.870000000    -3.465000000    -2.429000000
H     0.032000000    -2.463000000    -1.666000000
O     1.894000000    -0.302000000     4.588000000
H     1.675000000    -0.851000000     5.341000000
H     1.801000000    -0.883000000     3.833000000
O     5.501000000     0.285000000     2.509000000
H     4.815000000     0.953000000     2.506000000
H     6.168000000     0.630000000     3.103000000
O    -0.768000000    -1.449000000    -5.545000000
H    -1.294000000    -2.248000000    -5.584000000
H    -0.148000000    -1.605000000    -4.833000000
O    -0.225000000     0.724000000    -6.834000000
H    -0.842000000     1.383000000    -6.516000000
H    -0.493000000    -0.085000000    -6.398000000
O    -3.198000000    -3.348000000    -1.798000000
H    -2.932000000    -3.482000000    -0.888000000
H    -4.027000000    -2.873000000    -1.737000000
O     4.512000000    -2.284000000     2.304000000
H     4.686000000    -1.345000000     2.247000000
H     3.561000000    -2.347000000     2.390000000
O     3.565000000     1.697000000    -3.072000000
H     2.826000000     1.264000000    -2.645000000
H     3.727000000     1.174000000    -3.857000000
O    -3.983000000     0.686000000    -5.077000000
H    -3.602000000    -0.045000000    -4.590000000
H    -3.775000000     0.499000000    -5.992000000
O     0.529000000    -5.228000000     0.757000000
H     0.348000000    -4.449000000     1.283000000
H    -0.139000000    -5.859000000     1.026000000
O     2.399000000    -2.380000000     6.464000000
H     1.879000000    -3.158000000     6.262000000
H     3.208000000    -2.496000000     5.965000000
O     4.036000000    -6.649000000     4.214000000
H     4.461000000    -6.651000000     3.357000000
H     3.458000000    -5.886000000     4.193000000
O     3.331000000     5.354000000    -1.068000000
H     3.945000000     5.691000000    -1.720000000
H     2.479000000     5.692000000    -1.345000000
O     0.746000000    -4.511000000     6.434000000
H     0.179000000    -5.015000000     5.851000000
H     0.721000000    -4.987000000     7.264000000
O    -5.815000000    -2.346000000    -2.017000000
H    -6.056000000    -1.466000000    -1.727000000
H    -5.687000000    -2.260000000    -2.962000000
O    -1.554000000     6.267000000    -2.607000000
H    -1.885000000     6.123000000    -3.493000000
H    -2.096000000     6.976000000    -2.261000000
O    -4.223000000     4.382000000    -1.189000000
H    -3.358000000     4.427000000    -0.780000000
H    -4.058000000     4.016000000    -2.058000000
O     4.228000000     2.877000000    -0.522000000
H     4.195000000     2.410000000    -1.356000000
H     3.964000000     3.772000000    -0.737000000
O    -1.605000000    -4.263000000     3.764000000
H    -2.127000000    -3.470000000     3.884000000
H    -0.884000000    -3.992000000     3.195000000
O     3.928000000     2.861000000     2.367000000
H     4.007000000     2.752000000     1.419000000
H     2.985000000     2.916000000     2.524000000
O     6.797000000    -3.136000000     1.398000000
H     5.921000000    -2.964000000     1.744000000
H     7.390000000    -2.789000000     2.065000000
O    -3.165000000    -6.092000000     4.959000000
H    -2.810000000    -6.884000000     4.557000000
H    -2.604000000    -5.387000000     4.636000000
