144
-2839.42239
O     2.833000000    -6.431000000     5.457000000
H     2.509000000    -5.896000000     4.733000000
H     3.650000000    -6.807000000     5.130000000
O    -3.836000000    -4.691000000     3.349000000
H    -3.202000000    -5.034000000     3.979000000
H    -3.304000000    -4.220000000     2.707000000
O    -1.594000000     3.885000000     4.375000000
H    -0.879000000     3.399000000     3.963000000
H    -1.414000000     4.801000000     4.163000000
O    -5.812000000     5.684000000    -2.163000000
H    -6.295000000     6.022000000    -1.408000000
H    -5.279000000     4.973000000    -1.807000000
O     6.334000000    -3.691000000     2.844000000
H     5.830000000    -2.879000000     2.787000000
H     7.115000000    -3.525000000     2.316000000
O    -2.236000000     1.382000000    -4.450000000
H    -2.025000000     1.913000000    -5.218000000
H    -1.500000000     1.520000000    -3.853000000
O     0.496000000     2.278000000     3.398000000
H     0.340000000     2.675000000     2.541000000
H    -0.002000000     1.461000000     3.377000000
O     0.931000000     5.454000000    -1.534000000
H     0.644000000     6.280000000    -1.143000000
H     0.170000000     5.145000000    -2.026000000
O    -2.686000000    -3.127000000     1.558000000
H    -1.866000000    -2.938000000     2.015000000
H    -2.870000000    -2.332000000     1.057000000
O    -1.707000000     2.707000000    -6.746000000
H    -2.333000000     3.424000000    -6.846000000
H    -1.186000000     2.730000000    -7.548000000
O    -3.482000000     3.475000000     2.175000000
H    -2.946000000     3.355000000     2.959000000
H    -4.157000000     4.101000000     2.440000000
O    -0.425000000    -1.639000000    -4.514000000
H    -0.788000000    -1.635000000    -3.628000000
H    -0.326000000    -2.566000000    -4.728000000
O    -1.613000000     5.083000000    -2.968000000
H    -1.107000000     4.470000000    -3.501000000
H    -2.239000000     5.472000000    -3.579000000
O    -3.704000000    -1.191000000     0.002000000
H    -4.483000000    -1.213000000    -0.554000000
H    -3.871000000    -0.479000000     0.620000000
O    -4.222000000    -1.822000000     3.811000000
H    -3.820000000    -2.616000000     3.458000000
H    -4.267000000    -1.976000000     4.755000000
O     0.073000000     4.018000000    -4.655000000
H    -0.032000000     4.333000000    -5.553000000
H     0.381000000     3.117000000    -4.751000000
O    -1.217000000    -4.462000000     4.291000000
H    -0.740000000    -4.717000000     5.081000000
H    -0.803000000    -3.644000000     4.015000000
O    -2.841000000    -5.040000000    -0.459000000
H    -2.715000000    -4.499000000     0.321000000
H    -3.058000000    -5.907000000    -0.116000000
O     0.422000000    -4.849000000     6.539000000
H     1.155000000    -5.329000000     6.155000000
H     0.653000000    -4.758000000     7.463000000
O     2.928000000    -4.014000000    -3.568000000
H     3.790000000    -4.290000000    -3.881000000
H     2.609000000    -4.759000000    -3.059000000
O     3.127000000     1.666000000     0.292000000
H     2.730000000     0.909000000     0.724000000
H     3.867000000     1.900000000     0.852000000
O     4.225000000     1.773000000    -2.311000000
H     3.766000000     1.579000000    -1.494000000
H     4.565000000     2.660000000    -2.190000000
O     0.717000000     1.451000000    -5.183000000
H     0.611000000     0.996000000    -6.018000000
H     1.664000000     1.501000000    -5.055000000
O    -2.502000000     6.052000000    -0.375000000
H    -3.216000000     5.432000000    -0.231000000
H    -2.166000000     5.833000000    -1.245000000
O    -4.808000000     1.160000000     1.240000000
H    -4.390000000     1.954000000     1.572000000
H    -5.494000000     0.965000000     1.878000000
O     1.406000000     6.585000000     2.508000000
H     2.327000000     6.502000000     2.755000000
H     1.231000000     5.810000000     1.974000000
O     3.828000000    -1.693000000     2.077000000
H     4.484000000    -1.736000000     1.382000000
H     3.083000000    -2.186000000     1.734000000
O     5.948000000    -1.522000000    -0.058000000
H     6.861000000    -1.245000000     0.017000000
H     5.797000000    -1.593000000    -1.001000000
O     1.857000000    -5.804000000     0.424000000
H     1.749000000    -5.891000000    -0.523000000
H     2.009000000    -4.870000000     0.564000000
O    -2.559000000    -0.261000000     5.192000000
H    -1.727000000    -0.728000000     5.270000000
H    -3.022000000    -0.714000000     4.487000000
O     5.168000000    -5.287000000    -0.401000000
H     5.174000000    -4.396000000    -0.051000000
H     5.003000000    -5.843000000     0.360000000
O     1.825000000     1.318000000     6.180000000
H     1.627000000     0.743000000     5.441000000
H     1.926000000     2.186000000     5.787000000
O     0.495000000    -7.342000000     2.249000000
H     0.224000000    -7.853000000     1.486000000
H     1.120000000    -6.706000000     1.901000000
O     2.433000000     5.362000000    -3.861000000
H     2.125000000     5.285000000    -2.959000000
H     1.763000000     4.919000000    -4.382000000
O     4.315000000    -1.053000000    -2.450000000
H     4.317000000    -0.096000000    -2.429000000
H     3.772000000    -1.275000000    -3.206000000
O    -1.530000000    -7.053000000     4.017000000
H    -1.434000000    -6.118000000     4.201000000
H    -0.794000000    -7.260000000     3.442000000
O    -1.519000000    -2.498000000    -1.980000000
H    -1.706000000    -3.287000000    -1.472000000
H    -1.388000000    -1.815000000    -1.322000000
O     1.156000000    -0.732000000     4.432000000
H     1.962000000    -1.209000000     4.633000000
H     0.731000000    -1.257000000     3.754000000
O     1.777000000     4.258000000     1.093000000
H     2.418000000     3.565000000     0.938000000
H     1.448000000     4.479000000     0.222000000
O     4.496000000     4.435000000    -1.524000000
H     4.544000000     5.025000000    -0.771000000
H     3.913000000     4.879000000    -2.139000000
O     3.919000000     0.223000000     3.932000000
H     4.862000000     0.067000000     3.986000000
H     3.620000000    -0.358000000     3.233000000
O     4.567000000    -5.553000000     2.290000000
H     3.820000000    -5.188000000     2.765000000
H     5.326000000    -5.091000000     2.646000000
O     3.350000000     1.157000000    -4.970000000
H     3.317000000     0.200000000    -4.978000000
H     3.567000000     1.381000000    -4.065000000
O     3.269000000    -2.588000000     5.386000000
H     4.115000000    -3.033000000     5.420000000
H     3.059000000    -2.403000000     6.301000000
O    -4.512000000     3.838000000    -0.664000000
H    -4.590000000     2.962000000    -1.041000000
H    -4.029000000     3.705000000     0.152000000
O     2.274000000    -4.546000000     3.708000000
H     1.828000000    -4.141000000     2.965000000
H     2.603000000    -3.808000000     4.221000000
O    -4.865000000     0.602000000    -4.922000000
H    -3.945000000     0.776000000    -4.724000000
H    -4.842000000     0.065000000    -5.715000000
O     2.665000000    -1.519000000    -4.576000000
H     2.744000000    -2.447000000    -4.353000000
H     1.725000000    -1.382000000    -4.701000000
