144
-2790.21139
O    -2.803000000    -5.086000000     0.129000000
H    -3.668000000    -4.695000000     0.007000000
H    -2.404000000    -4.572000000     0.830000000
O    -1.708000000    -6.455000000     4.064000000
H    -2.215000000    -6.386000000     4.873000000
H    -1.295000000    -5.598000000     3.966000000
O    -3.784000000     3.625000000     1.731000000
H    -2.884000000     3.896000000     1.913000000
H    -4.127000000     3.349000000     2.581000000
O    -4.149000000     4.704000000    -3.618000000
H    -3.354000000     4.263000000    -3.917000000
H    -3.896000000     5.123000000    -2.795000000
O    -4.957000000     1.995000000     3.592000000
H    -4.460000000     1.329000000     3.116000000
H    -5.700000000     1.519000000     3.963000000
O     0.363000000    -5.933000000    -0.569000000
H     0.257000000    -6.546000000     0.159000000
H     0.268000000    -5.068000000    -0.169000000
O    -3.047000000     1.178000000    -4.560000000
H    -2.320000000     0.565000000    -4.449000000
H    -3.427000000     1.258000000    -3.685000000
O    -1.206000000    -0.599000000    -3.990000000
H    -0.379000000    -0.251000000    -3.656000000
H    -1.031000000    -0.792000000    -4.911000000
O     3.584000000     3.150000000     4.189000000
H     4.493000000     3.403000000     4.028000000
H     3.322000000     2.681000000     3.397000000
O    -1.703000000     4.654000000    -4.702000000
H    -0.882000000     4.165000000    -4.636000000
H    -1.656000000     5.296000000    -3.994000000
O    -5.479000000    -1.467000000     0.294000000
H    -5.199000000    -2.308000000     0.656000000
H    -6.329000000    -1.302000000     0.701000000
O    -3.358000000    -2.060000000    -3.525000000
H    -3.850000000    -1.553000000    -2.879000000
H    -2.660000000    -1.471000000    -3.812000000
O    -1.237000000    -3.892000000     2.864000000
H    -1.106000000    -3.048000000     3.294000000
H    -0.494000000    -3.974000000     2.266000000
O    -4.027000000     6.642000000     0.996000000
H    -3.488000000     6.955000000     1.722000000
H    -3.862000000     5.699000000     0.964000000
O     0.524000000     3.344000000    -4.123000000
H     0.436000000     2.437000000    -3.831000000
H     0.906000000     3.802000000    -3.374000000
O    -3.815000000    -3.316000000     3.528000000
H    -2.890000000    -3.535000000     3.413000000
H    -4.071000000    -3.774000000     4.329000000
O    -0.265000000    -8.191000000     1.345000000
H     0.362000000    -7.980000000     2.037000000
H    -1.112000000    -7.918000000     1.696000000
O    -2.541000000    -5.049000000    -2.869000000
H    -3.046000000    -5.446000000    -2.158000000
H    -2.517000000    -4.117000000    -2.653000000
O    -1.003000000     1.056000000     2.990000000
H    -1.921000000     1.143000000     3.248000000
H    -1.031000000     0.956000000     2.038000000
O     5.790000000     3.240000000    -0.622000000
H     5.091000000     3.881000000    -0.495000000
H     6.596000000     3.728000000    -0.449000000
O     4.110000000     1.672000000    -2.158000000
H     4.732000000     2.295000000    -1.782000000
H     3.910000000     2.027000000    -3.025000000
O     4.529000000    -5.500000000    -2.268000000
H     5.254000000    -4.878000000    -2.209000000
H     4.001000000    -5.327000000    -1.488000000
O    -4.076000000    -0.406000000     2.457000000
H    -4.023000000    -1.358000000     2.547000000
H    -4.623000000    -0.268000000     1.684000000
O    -5.308000000     3.801000000    -0.609000000
H    -4.689000000     4.053000000     0.076000000
H    -5.350000000     2.846000000    -0.554000000
O    -5.337000000    -3.881000000     1.386000000
H    -4.921000000    -3.562000000     2.187000000
H    -6.146000000    -4.295000000     1.684000000
O    -1.201000000     5.035000000     2.050000000
H    -1.405000000     5.858000000     2.493000000
H    -0.505000000     4.644000000     2.578000000
O     7.404000000    -0.044000000     0.759000000
H     7.794000000    -0.022000000     1.633000000
H     6.568000000    -0.495000000     0.880000000
O    -0.139000000    -6.203000000    -3.198000000
H    -1.047000000    -5.966000000    -3.008000000
H     0.244000000    -6.390000000    -2.340000000
O     5.371000000    -1.650000000     4.202000000
H     5.757000000    -0.811000000     3.949000000
H     5.775000000    -1.854000000     5.045000000
O     3.112000000    -3.212000000     4.070000000
H     2.695000000    -3.110000000     4.926000000
H     4.024000000    -2.962000000     4.216000000
O     5.109000000    -2.552000000     1.573000000
H     5.398000000    -2.244000000     2.432000000
H     4.154000000    -2.505000000     1.610000000
O    -0.267000000     5.995000000    -0.541000000
H    -0.070000000     6.919000000    -0.386000000
H    -0.538000000     5.661000000     0.314000000
O     6.185000000    -3.374000000    -1.306000000
H     6.156000000    -2.541000000    -1.775000000
H     5.936000000    -3.152000000    -0.408000000
O     3.342000000    -5.128000000     0.066000000
H     3.576000000    -4.268000000     0.415000000
H     2.406000000    -5.214000000     0.246000000
O     1.595000000     4.434000000    -1.931000000
H     2.075000000     3.987000000    -1.234000000
H     1.010000000     5.037000000    -1.472000000
O     3.857000000     5.121000000    -3.049000000
H     3.931000000     6.072000000    -3.134000000
H     2.981000000     4.980000000    -2.689000000
O     5.326000000    -1.039000000    -2.274000000
H     6.009000000    -0.384000000    -2.419000000
H     4.563000000    -0.532000000    -1.997000000
O     1.980000000    -6.826000000     5.121000000
H     2.237000000    -6.226000000     4.421000000
H     1.217000000    -6.412000000     5.524000000
O    -0.519000000    -1.631000000     4.442000000
H    -0.221000000    -0.832000000     4.008000000
H     0.260000000    -1.968000000     4.884000000
O    -2.327000000     6.479000000    -2.128000000
H    -1.605000000     6.443000000    -1.500000000
H    -2.324000000     7.382000000    -2.446000000
O     1.200000000     0.443000000    -3.376000000
H     1.941000000     1.019000000    -3.187000000
H     1.567000000    -0.440000000    -3.332000000
O     2.347000000    -0.707000000     3.431000000
H     2.665000000    -1.591000000     3.611000000
H     2.457000000    -0.601000000     2.486000000
O     2.650000000     3.939000000     0.532000000
H     2.103000000     3.331000000     1.029000000
H     3.161000000     4.400000000     1.197000000
O     1.641000000     2.085000000     2.772000000
H     1.841000000     1.302000000     3.286000000
H     0.688000000     2.075000000     2.681000000
O     3.693000000    -7.495000000     2.388000000
H     4.449000000    -6.948000000     2.178000000
H     2.985000000    -6.872000000     2.553000000
O     6.002000000    -6.084000000     1.397000000
H     6.564000000    -6.537000000     0.768000000
H     5.355000000    -5.631000000     0.856000000
O     1.887000000    -5.242000000     2.867000000
H     1.403000000    -4.878000000     2.126000000
H     2.459000000    -4.530000000     3.152000000
O    -4.723000000     0.181000000    -2.065000000
H    -4.979000000    -0.401000000    -1.350000000
H    -5.452000000     0.135000000    -2.684000000
