144
-2821.28466
O     3.750000000    -4.164000000    -0.760000000
H     4.039000000    -4.458000000     0.103000000
H     2.896000000    -3.761000000    -0.603000000
O     4.446000000    -1.492000000     2.384000000
H     5.097000000    -1.116000000     1.792000000
H     3.705000000    -0.889000000     2.339000000
O     0.665000000    -6.787000000     3.642000000
H    -0.247000000    -6.498000000     3.612000000
H     0.909000000    -6.714000000     4.565000000
O     2.001000000     0.070000000     2.735000000
H     1.333000000    -0.025000000     2.056000000
H     1.893000000     0.965000000     3.056000000
O     6.151000000    -4.586000000    -2.183000000
H     6.603000000    -3.905000000    -2.681000000
H     5.341000000    -4.170000000    -1.890000000
O     3.920000000    -7.597000000    -1.069000000
H     3.843000000    -7.219000000    -0.193000000
H     3.085000000    -7.397000000    -1.490000000
O    -2.363000000    -2.912000000    -3.205000000
H    -2.738000000    -3.357000000    -2.445000000
H    -2.241000000    -2.008000000    -2.918000000
O    -2.366000000    -0.288000000    -2.336000000
H    -1.875000000    -0.022000000    -1.558000000
H    -2.101000000     0.336000000    -3.011000000
O     2.019000000     5.381000000     0.737000000
H     1.808000000     5.650000000     1.631000000
H     1.342000000     5.790000000     0.197000000
O    -0.185000000     4.954000000     2.940000000
H    -0.943000000     5.403000000     2.567000000
H    -0.462000000     4.041000000     3.019000000
O    -1.202000000     1.318000000    -3.939000000
H    -0.335000000     1.195000000    -3.552000000
H    -1.193000000     2.216000000    -4.269000000
O    -1.350000000    -6.156000000    -2.963000000
H    -1.835000000    -5.335000000    -2.872000000
H    -1.900000000    -6.808000000    -2.528000000
O     3.907000000    -4.283000000     1.944000000
H     3.078000000    -4.347000000     2.420000000
H     4.220000000    -3.398000000     2.127000000
O    -2.726000000    -2.556000000     5.875000000
H    -2.169000000    -2.605000000     6.652000000
H    -2.367000000    -3.215000000     5.281000000
O     1.279000000    -6.234000000    -1.650000000
H     0.483000000    -6.431000000    -2.144000000
H     1.357000000    -5.281000000    -1.695000000
O    -2.769000000    -7.103000000     1.652000000
H    -2.666000000    -6.919000000     2.586000000
H    -1.913000000    -6.903000000     1.273000000
O     3.725000000     6.529000000    -1.372000000
H     3.317000000     5.793000000    -0.916000000
H     4.486000000     6.147000000    -1.810000000
O    -3.683000000     4.401000000    -2.863000000
H    -2.871000000     4.483000000    -3.364000000
H    -4.377000000     4.510000000    -3.513000000
O    -1.432000000     3.730000000    -4.945000000
H    -1.779000000     4.362000000    -5.574000000
H    -1.110000000     4.265000000    -4.220000000
O     1.291000000     7.089000000     4.000000000
H     1.439000000     7.854000000     3.444000000
H     0.652000000     6.563000000     3.518000000
O    -5.461000000     1.626000000     2.494000000
H    -5.162000000     0.728000000     2.633000000
H    -6.355000000     1.533000000     2.165000000
O    -4.398000000    -0.924000000     3.045000000
H    -3.442000000    -0.939000000     3.097000000
H    -4.602000000    -1.408000000     2.245000000
O     3.708000000    -0.285000000    -3.354000000
H     3.470000000     0.239000000    -4.119000000
H     3.807000000     0.353000000    -2.648000000
O    -2.543000000    -3.385000000     2.878000000
H    -1.934000000    -3.745000000     2.233000000
H    -3.272000000    -4.004000000     2.891000000
O     5.296000000    -1.347000000    -1.071000000
H     4.904000000    -0.743000000    -0.440000000
H     4.740000000    -1.278000000    -1.846000000
O    -3.591000000     3.451000000     1.455000000
H    -4.370000000     2.920000000     1.620000000
H    -2.955000000     3.152000000     2.104000000
O    -2.843000000     6.388000000     2.386000000
H    -3.271000000     5.851000000     3.052000000
H    -3.533000000     6.577000000     1.750000000
O     5.163000000    -2.629000000    -4.965000000
H     4.721000000    -2.031000000    -4.362000000
H     4.602000000    -3.404000000    -4.989000000
O    -1.599000000     0.095000000     4.949000000
H    -1.015000000     0.220000000     5.696000000
H    -1.969000000    -0.778000000     5.077000000
O     1.450000000    -3.685000000    -3.373000000
H     1.235000000    -3.486000000    -2.462000000
H     0.638000000    -4.031000000    -3.742000000
O    -4.613000000    -0.737000000     5.698000000
H    -4.392000000    -0.375000000     4.840000000
H    -3.991000000    -1.454000000     5.823000000
O    -3.741000000     5.544000000    -0.098000000
H    -3.741000000     5.142000000    -0.967000000
H    -3.715000000     4.803000000     0.508000000
O    -4.810000000     0.877000000    -2.740000000
H    -4.304000000     1.685000000    -2.656000000
H    -4.237000000     0.198000000    -2.383000000
O     1.523000000    -1.987000000     4.657000000
H     2.074000000    -1.501000000     4.043000000
H     1.239000000    -2.757000000     4.164000000
O     0.403000000     4.877000000    -2.951000000
H     0.390000000     4.879000000    -1.994000000
H     0.690000000     5.759000000    -3.188000000
O     1.831000000     2.586000000     4.224000000
H     1.562000000     2.517000000     5.140000000
H     1.345000000     3.339000000     3.889000000
O    -1.516000000     2.464000000     3.650000000
H    -1.489000000     1.541000000     3.901000000
H    -2.090000000     2.872000000     4.297000000
O     3.143000000     1.238000000    -5.445000000
H     3.560000000     0.828000000    -6.202000000
H     2.484000000     1.822000000    -5.821000000
O     4.243000000     2.311000000    -2.331000000
H     4.157000000     3.108000000    -2.855000000
H     3.994000000     2.578000000    -1.447000000
O     3.658000000    -4.782000000    -4.804000000
H     3.885000000    -5.709000000    -4.876000000
H     2.792000000    -4.778000000    -4.396000000
O     3.689000000     3.409000000     0.087000000
H     3.114000000     4.102000000     0.412000000
H     3.974000000     2.944000000     0.874000000
O    -3.158000000    -4.200000000    -0.781000000
H    -2.297000000    -4.160000000    -0.365000000
H    -3.347000000    -5.136000000    -0.850000000
O     4.173000000     2.511000000     2.636000000
H     4.743000000     3.055000000     3.179000000
H     3.374000000     2.410000000     3.155000000
O     1.387000000    -4.202000000     2.959000000
H     0.996000000    -4.221000000     2.086000000
H     1.118000000    -5.029000000     3.360000000
O    -0.460000000    -6.215000000     0.530000000
H    -0.286000000    -5.393000000     0.989000000
H     0.147000000    -6.209000000    -0.210000000
O    -0.205000000     6.545000000    -0.635000000
H    -0.036000000     7.473000000    -0.472000000
H    -1.158000000     6.480000000    -0.684000000
O    -4.918000000    -2.544000000     0.882000000
H    -5.464000000    -2.388000000     0.111000000
H    -4.466000000    -3.366000000     0.694000000
O     2.275000000    -2.013000000    -5.711000000
H     2.754000000    -1.286000000    -5.313000000
H     2.068000000    -2.593000000    -4.977000000
