144
-2838.02629
O    -4.965000000    -0.678000000     0.427000000
H    -4.552000000    -0.813000000     1.280000000
H    -4.256000000    -0.370000000    -0.137000000
O     4.969000000     0.747000000    -0.547000000
H     5.381000000     0.460000000    -1.362000000
H     4.565000000    -0.044000000    -0.192000000
O    -2.645000000     1.770000000     6.083000000
H    -3.176000000     1.622000000     6.865000000
H    -2.705000000     0.950000000     5.594000000
O    -1.554000000    -3.505000000     1.327000000
H    -1.400000000    -4.331000000     0.868000000
H    -1.027000000    -3.572000000     2.123000000
O     0.481000000     3.254000000     3.941000000
H     1.166000000     3.785000000     4.347000000
H     0.737000000     2.351000000     4.128000000
O    -5.302000000     1.936000000    -4.460000000
H    -5.974000000     2.155000000    -3.814000000
H    -4.823000000     2.754000000    -4.593000000
O     5.035000000    -6.242000000    -0.242000000
H     5.572000000    -5.835000000    -0.922000000
H     4.265000000    -6.568000000    -0.708000000
O     0.052000000    -0.898000000     3.030000000
H     0.462000000    -1.743000000     2.847000000
H    -0.111000000    -0.519000000     2.166000000
O    -3.657000000     4.231000000    -4.264000000
H    -4.239000000     4.910000000    -3.922000000
H    -2.873000000     4.290000000    -3.717000000
O     2.488000000    -3.027000000    -4.692000000
H     1.598000000    -2.677000000    -4.651000000
H     2.373000000    -3.944000000    -4.944000000
O    -0.134000000    -2.543000000    -4.267000000
H    -0.282000000    -1.657000000    -3.936000000
H    -0.421000000    -2.510000000    -5.180000000
O    -1.852000000     4.954000000     2.973000000
H    -1.714000000     5.779000000     3.438000000
H    -1.079000000     4.429000000     3.184000000
O    -3.437000000     5.879000000    -0.846000000
H    -4.304000000     5.832000000    -1.249000000
H    -3.541000000     5.438000000    -0.003000000
O     3.915000000     3.213000000     0.993000000
H     4.703000000     3.379000000     1.510000000
H     4.076000000     2.366000000     0.577000000
O    -3.639000000    -1.895000000     2.506000000
H    -2.934000000    -2.312000000     2.011000000
H    -4.284000000    -2.591000000     2.635000000
O    -2.789000000    -4.003000000    -2.047000000
H    -1.872000000    -3.915000000    -1.785000000
H    -3.123000000    -3.106000000    -2.056000000
O     4.041000000     0.114000000     4.637000000
H     3.121000000     0.379000000     4.616000000
H     4.060000000    -0.722000000     4.171000000
O    -3.076000000    -4.907000000    -4.514000000
H    -3.236000000    -4.009000000    -4.805000000
H    -2.929000000    -4.831000000    -3.572000000
O    -0.983000000    -5.749000000    -0.207000000
H    -0.824000000    -5.245000000    -1.005000000
H    -0.982000000    -6.662000000    -0.496000000
O    -7.372000000     1.673000000    -1.640000000
H    -7.332000000     0.729000000    -1.791000000
H    -7.462000000     1.760000000    -0.691000000
O    -4.526000000    -4.665000000     0.004000000
H    -5.036000000    -3.864000000    -0.122000000
H    -3.770000000    -4.561000000    -0.575000000
O    -2.726000000     0.962000000    -3.139000000
H    -3.342000000     1.682000000    -3.004000000
H    -2.557000000     0.965000000    -4.081000000
O    -7.306000000     1.687000000     1.363000000
H    -6.453000000     2.013000000     1.651000000
H    -7.940000000     2.212000000     1.852000000
O     1.410000000    -3.734000000     2.329000000
H     1.743000000    -4.228000000     1.580000000
H     0.957000000    -4.386000000     2.864000000
O     3.667000000    -1.803000000     2.821000000
H     2.949000000    -2.434000000     2.769000000
H     3.671000000    -1.373000000     1.966000000
O    -4.917000000     2.159000000     3.037000000
H    -4.397000000     1.387000000     3.263000000
H    -5.243000000     2.482000000     3.877000000
O     1.545000000     4.760000000     1.688000000
H     1.343000000     4.452000000     2.572000000
H     2.436000000     4.452000000     1.525000000
O     5.902000000    -0.325000000    -3.540000000
H     4.948000000    -0.263000000    -3.599000000
H     6.207000000    -0.178000000    -4.435000000
O     3.787000000    -6.688000000     2.227000000
H     4.441000000    -5.991000000     2.159000000
H     3.222000000    -6.561000000     1.465000000
O    -1.872000000     2.008000000    -5.573000000
H    -1.870000000     2.962000000    -5.497000000
H    -1.320000000     1.828000000    -6.334000000
O     5.798000000    -2.738000000     0.327000000
H     6.188000000    -3.286000000    -0.354000000
H     4.897000000    -2.600000000     0.036000000
O    -3.726000000    -1.421000000    -2.195000000
H    -3.530000000    -0.649000000    -2.726000000
H    -4.373000000    -1.906000000    -2.707000000
O     6.339000000    -0.713000000     1.876000000
H     5.990000000     0.057000000     1.427000000
H     5.907000000    -1.454000000     1.451000000
O    -1.899000000    -6.452000000     2.158000000
H    -1.639000000    -6.225000000     1.265000000
H    -2.818000000    -6.191000000     2.213000000
O    -1.723000000     4.849000000    -2.444000000
H    -2.215000000     5.055000000    -1.650000000
H    -0.828000000     5.128000000    -2.251000000
O    -6.710000000    -2.979000000    -0.657000000
H    -6.131000000    -2.221000000    -0.580000000
H    -7.343000000    -2.870000000     0.053000000
O    -4.009000000     4.394000000     1.379000000
H    -4.413000000     3.599000000     1.726000000
H    -3.180000000     4.468000000     1.851000000
O     1.306000000     5.094000000    -1.110000000
H     0.714000000     5.820000000    -0.919000000
H     1.309000000     4.569000000    -0.310000000
O     0.230000000     7.665000000     1.797000000
H     0.159000000     6.785000000     1.428000000
H    -0.042000000     8.246000000     1.086000000
O     6.495000000    -5.190000000    -2.443000000
H     6.747000000    -5.720000000    -3.200000000
H     5.726000000    -4.703000000    -2.738000000
O     5.331000000    -4.351000000     2.576000000
H     4.997000000    -3.457000000     2.500000000
H     5.924000000    -4.449000000     1.830000000
O     0.077000000    -4.359000000    -2.051000000
H     0.851000000    -4.028000000    -1.596000000
H     0.025000000    -3.832000000    -2.849000000
O    -0.231000000    -0.073000000    -3.049000000
H     0.007000000    -0.075000000    -2.122000000
H    -1.118000000     0.287000000    -3.068000000
O     1.309000000     0.670000000     4.682000000
H     0.897000000     0.110000000     4.025000000
H     0.820000000     0.495000000     5.486000000
O     4.648000000     2.718000000    -3.032000000
H     4.903000000     3.409000000    -2.420000000
H     4.310000000     2.017000000    -2.474000000
O     2.269000000    -5.610000000     0.047000000
H     2.389000000    -4.679000000    -0.141000000
H     1.720000000    -5.929000000    -0.669000000
O    -2.657000000    -0.658000000     4.636000000
H    -2.952000000    -1.269000000     3.961000000
H    -1.701000000    -0.688000000     4.584000000
O     4.082000000    -3.590000000    -2.369000000
H     3.579000000    -3.351000000    -1.591000000
H     3.485000000    -3.431000000    -3.100000000
