144
-2835.82552
O    -4.106000000    -1.845000000     1.444000000
H    -3.959000000    -2.634000000     1.965000000
H    -3.907000000    -2.112000000     0.546000000
O     3.835000000    -3.352000000     0.333000000
H     3.940000000    -2.517000000     0.788000000
H     3.005000000    -3.266000000    -0.137000000
O    -0.614000000     7.210000000    -2.825000000
H    -1.348000000     7.352000000    -2.227000000
H    -0.700000000     6.296000000    -3.097000000
O     0.577000000    -0.886000000     3.001000000
H    -0.304000000    -1.238000000     2.873000000
H     1.079000000    -1.218000000     2.257000000
O    -2.843000000    -3.996000000    -3.664000000
H    -2.610000000    -3.745000000    -2.771000000
H    -3.630000000    -3.488000000    -3.859000000
O     0.631000000    -1.325000000    -4.877000000
H    -0.004000000    -1.963000000    -5.202000000
H     0.197000000    -0.915000000    -4.128000000
O     1.124000000     6.552000000     4.044000000
H     1.830000000     5.904000000     4.043000000
H     0.508000000     6.235000000     3.383000000
O    -5.238000000     1.936000000    -0.360000000
H    -5.700000000     2.738000000    -0.604000000
H    -5.136000000     1.998000000     0.590000000
O     0.407000000     5.947000000     1.131000000
H    -0.275000000     6.608000000     1.257000000
H     0.573000000     5.952000000     0.189000000
O    -3.067000000     4.210000000     3.372000000
H    -2.899000000     5.049000000     3.799000000
H    -2.770000000     4.337000000     2.470000000
O    -2.749000000     7.370000000    -0.971000000
H    -3.002000000     6.693000000    -0.343000000
H    -3.548000000     7.544000000    -1.469000000
O     3.604000000    -5.192000000    -4.750000000
H     3.415000000    -5.741000000    -5.512000000
H     3.512000000    -4.296000000    -5.073000000
O    -2.343000000    -6.933000000    -2.439000000
H    -3.135000000    -7.468000000    -2.400000000
H    -2.522000000    -6.195000000    -1.856000000
O    -5.705000000    -3.107000000    -1.075000000
H    -4.969000000    -3.552000000    -0.655000000
H    -5.430000000    -2.998000000    -1.986000000
O     1.926000000    -3.483000000     3.285000000
H     1.805000000    -3.677000000     4.214000000
H     2.875000000    -3.436000000     3.171000000
O     1.594000000    -8.405000000    -2.362000000
H     0.688000000    -8.637000000    -2.161000000
H     1.647000000    -7.467000000    -2.182000000
O    -0.591000000    -6.295000000    -0.156000000
H    -0.989000000    -6.466000000    -1.010000000
H    -0.129000000    -5.464000000    -0.270000000
O     0.810000000     2.104000000    -4.679000000
H     0.539000000     1.420000000    -4.067000000
H     0.334000000     1.905000000    -5.486000000
O    -3.159000000     1.310000000    -2.188000000
H    -3.460000000     1.215000000    -3.092000000
H    -3.948000000     1.196000000    -1.659000000
O    -0.471000000     0.280000000    -2.838000000
H    -1.332000000     0.690000000    -2.929000000
H    -0.351000000     0.183000000    -1.893000000
O     1.078000000    -6.718000000     2.434000000
H     0.390000000    -6.801000000     1.774000000
H     0.630000000    -6.375000000     3.206000000
O    -3.399000000     0.061000000     3.492000000
H    -3.571000000    -0.327000000     2.634000000
H    -3.453000000    -0.675000000     4.103000000
O     4.864000000     0.714000000    -0.823000000
H     4.806000000     0.519000000    -1.759000000
H     5.801000000     0.820000000    -0.659000000
O     4.585000000    -0.983000000     1.338000000
H     4.779000000    -0.409000000     2.079000000
H     4.675000000    -0.420000000     0.569000000
O     2.009000000     5.136000000    -1.793000000
H     2.660000000     4.573000000    -1.375000000
H     2.499000000     5.613000000    -2.463000000
O     6.984000000    -2.438000000     0.435000000
H     7.286000000    -1.678000000     0.931000000
H     6.029000000    -2.380000000     0.465000000
O     1.763000000    -5.569000000    -2.749000000
H     2.421000000    -5.452000000    -3.434000000
H     1.812000000    -4.766000000    -2.230000000
O    -0.278000000    -9.044000000     0.178000000
H    -0.396000000    -8.096000000     0.120000000
H     0.496000000    -9.156000000     0.729000000
O    -2.920000000     3.920000000    -1.697000000
H    -3.169000000     3.003000000    -1.811000000
H    -2.058000000     3.986000000    -2.106000000
O    -7.014000000    -0.546000000    -0.759000000
H    -6.499000000    -1.352000000    -0.791000000
H    -6.371000000     0.153000000    -0.879000000
O    -0.210000000     4.444000000    -2.955000000
H    -0.188000000     3.646000000    -3.483000000
H     0.664000000     4.500000000    -2.569000000
O     4.914000000     1.118000000     3.165000000
H     4.151000000     1.685000000     3.051000000
H     5.661000000     1.715000000     3.148000000
O    -1.774000000     2.172000000     4.501000000
H    -2.246000000     2.863000000     4.037000000
H    -2.264000000     1.373000000     4.306000000
O    -5.007000000     2.517000000     2.603000000
H    -5.092000000     1.963000000     3.379000000
H    -4.247000000     3.070000000     2.787000000
O     0.640000000     1.302000000     5.869000000
H     0.647000000     0.361000000     5.692000000
H    -0.094000000     1.637000000     5.355000000
O     3.508000000     2.258000000    -3.595000000
H     3.803000000     1.377000000    -3.827000000
H     2.558000000     2.180000000    -3.515000000
O     4.438000000    -0.258000000    -3.428000000
H     3.818000000    -0.982000000    -3.339000000
H     5.195000000    -0.644000000    -3.870000000
O     4.639000000     3.883000000    -0.674000000
H     4.523000000     2.972000000    -0.943000000
H     4.132000000     3.961000000     0.133000000
O    -3.638000000     4.923000000     0.707000000
H    -4.526000000     4.965000000     0.353000000
H    -3.139000000     4.440000000     0.048000000
O     3.013000000    -6.072000000     0.490000000
H     2.895000000    -5.144000000     0.288000000
H     2.277000000    -6.288000000     1.062000000
O     2.488000000     3.917000000     1.529000000
H     1.774000000     4.538000000     1.388000000
H     2.123000000     3.264000000     2.127000000
O     4.485000000     4.937000000     2.939000000
H     4.126000000     4.864000000     3.824000000
H     3.849000000     4.486000000     2.384000000
O    -2.934000000    -4.123000000    -0.375000000
H    -1.993000000    -3.978000000    -0.471000000
H    -3.002000000    -4.868000000     0.222000000
O     1.713000000     1.817000000     3.397000000
H     1.510000000     1.715000000     4.327000000
H     1.288000000     1.071000000     2.976000000
O    -0.537000000    -3.430000000     2.195000000
H    -0.340000000    -3.572000000     1.269000000
H     0.318000000    -3.439000000     2.625000000
O    -0.323000000    -6.380000000    -4.268000000
H     0.329000000    -6.075000000    -3.636000000
H    -1.061000000    -6.666000000    -3.730000000
O    -3.453000000    -4.028000000     2.693000000
H    -2.508000000    -4.081000000     2.547000000
H    -3.697000000    -4.902000000     2.997000000
O     2.692000000    -2.391000000    -3.484000000
H     2.455000000    -2.568000000    -2.574000000
H     1.855000000    -2.347000000    -3.945000000
