144
-2815.59417
O    -6.389000000    -1.726000000    -1.127000000
H    -5.911000000    -2.183000000    -0.434000000
H    -5.706000000    -1.396000000    -1.711000000
O     5.431000000    -0.017000000    -0.098000000
H     6.154000000    -0.167000000    -0.707000000
H     4.662000000    -0.363000000    -0.550000000
O    -3.083000000    -4.860000000     1.164000000
H    -3.295000000    -5.206000000     2.031000000
H    -2.181000000    -4.549000000     1.244000000
O    -0.131000000     4.315000000     2.673000000
H     0.544000000     3.644000000     2.568000000
H     0.242000000     5.096000000     2.265000000
O     4.871000000    -6.549000000     0.298000000
H     3.982000000    -6.896000000     0.373000000
H     4.753000000    -5.658000000    -0.030000000
O    -2.497000000    -2.525000000     3.626000000
H    -2.274000000    -2.703000000     4.540000000
H    -1.966000000    -3.144000000     3.125000000
O     1.663000000    -3.724000000    -6.300000000
H     2.027000000    -3.753000000    -5.415000000
H     0.834000000    -4.199000000    -6.233000000
O    -0.597000000     7.589000000    -0.636000000
H    -0.829000000     7.778000000     0.273000000
H    -1.325000000     7.061000000    -0.964000000
O    -2.995000000     5.251000000     2.704000000
H    -2.898000000     6.193000000     2.563000000
H    -2.242000000     4.864000000     2.258000000
O    -2.959000000     6.432000000    -1.441000000
H    -3.788000000     6.891000000    -1.573000000
H    -3.199000000     5.631000000    -0.976000000
O     6.020000000     3.722000000    -1.397000000
H     6.152000000     3.424000000    -0.497000000
H     5.975000000     4.676000000    -1.329000000
O    -4.866000000    -2.858000000     0.704000000
H    -3.993000000    -3.248000000     0.741000000
H    -5.460000000    -3.580000000     0.904000000
O    -3.461000000    -3.339000000    -2.605000000
H    -2.524000000    -3.271000000    -2.790000000
H    -3.731000000    -2.443000000    -2.404000000
O     3.834000000     0.828000000     2.128000000
H     3.118000000     0.196000000     2.198000000
H     4.263000000     0.613000000     1.299000000
O    -1.210000000    -6.680000000    -2.822000000
H    -1.502000000    -6.406000000    -1.952000000
H    -1.989000000    -7.065000000    -3.225000000
O    -4.723000000    -5.358000000    -1.271000000
H    -4.411000000    -5.303000000    -0.367000000
H    -4.312000000    -4.614000000    -1.711000000
O    -2.224000000     1.352000000    -3.070000000
H    -2.504000000     2.243000000    -3.278000000
H    -1.612000000     1.457000000    -2.341000000
O    -7.822000000     1.195000000     2.355000000
H    -7.043000000     1.748000000     2.411000000
H    -8.076000000     1.044000000     3.265000000
O    -0.676000000    -4.475000000     2.309000000
H    -0.214000000    -4.688000000     1.498000000
H    -0.546000000    -5.242000000     2.867000000
O     2.963000000    -3.173000000     1.742000000
H     2.239000000    -3.328000000     2.349000000
H     2.538000000    -2.928000000     0.920000000
O    -4.036000000     1.905000000     5.668000000
H    -3.448000000     1.264000000     6.068000000
H    -4.914000000     1.599000000     5.895000000
O    -5.326000000     2.142000000     3.117000000
H    -5.101000000     1.241000000     2.886000000
H    -4.898000000     2.287000000     3.960000000
O     3.344000000     2.177000000    -2.443000000
H     3.275000000     1.916000000    -3.362000000
H     4.143000000     2.703000000    -2.403000000
O     7.240000000    -1.082000000    -2.065000000
H     7.043000000    -0.552000000    -2.837000000
H     7.229000000    -1.984000000    -2.385000000
O     7.562000000    -4.379000000     0.056000000
H     7.406000000    -4.606000000     0.973000000
H     6.690000000    -4.214000000    -0.301000000
O     1.627000000     6.320000000    -1.612000000
H     0.934000000     6.827000000    -1.189000000
H     1.324000000     6.206000000    -2.513000000
O    -4.202000000     4.785000000     5.201000000
H    -3.901000000     3.910000000     5.446000000
H    -3.926000000     4.886000000     4.290000000
O     5.043000000    -3.860000000    -1.136000000
H     5.585000000    -3.542000000    -1.858000000
H     4.439000000    -3.141000000    -0.955000000
O    -0.085000000    -5.829000000    -5.121000000
H    -0.379000000    -6.502000000    -5.736000000
H    -0.265000000    -6.200000000    -4.257000000
O    -4.300000000    -0.728000000    -2.658000000
H    -3.768000000     0.038000000    -2.874000000
H    -4.882000000    -0.836000000    -3.410000000
O     5.648000000    -2.238000000     2.221000000
H     5.432000000    -1.329000000     2.013000000
H     4.806000000    -2.695000000     2.203000000
O     6.868000000     2.399000000     1.164000000
H     6.209000000     1.728000000     0.987000000
H     7.493000000     1.972000000     1.750000000
O    -1.272000000     4.163000000    -2.836000000
H    -1.293000000     4.550000000    -3.711000000
H    -1.565000000     4.865000000    -2.256000000
O     2.318000000     2.901000000     3.195000000
H     2.524000000     2.915000000     4.129000000
H     2.638000000     2.051000000     2.892000000
O    -0.184000000     0.956000000     4.696000000
H    -1.060000000     0.579000000     4.775000000
H    -0.024000000     1.370000000     5.544000000
O    -5.631000000     4.333000000     1.770000000
H    -5.654000000     3.400000000     1.982000000
H    -4.701000000     4.557000000     1.777000000
O    -0.730000000     3.830000000     5.520000000
H    -0.362000000     4.707000000     5.413000000
H    -0.921000000     3.540000000     4.627000000
O     0.914000000     2.720000000    -3.498000000
H     0.194000000     3.108000000    -3.002000000
H     1.435000000     2.256000000    -2.842000000
O     2.700000000     4.250000000    -0.129000000
H     2.848000000     3.469000000    -0.661000000
H     2.324000000     4.887000000    -0.737000000
O     4.629000000    -6.271000000    -3.388000000
H     4.266000000    -5.567000000    -2.851000000
H     3.864000000    -6.693000000    -3.780000000
O     3.278000000     5.381000000     2.419000000
H     2.986000000     4.714000000     3.041000000
H     3.101000000     5.000000000     1.559000000
O    -0.859000000    -3.414000000    -3.526000000
H    -0.220000000    -3.586000000    -2.834000000
H    -0.712000000    -4.109000000    -4.167000000
O    -0.738000000    -0.706000000    -4.382000000
H    -1.412000000    -0.195000000    -3.933000000
H    -0.611000000    -1.475000000    -3.827000000
O     1.193000000    -0.635000000     3.137000000
H     0.545000000    -0.670000000     2.433000000
H     0.821000000    -0.026000000     3.774000000
O     2.351000000    -7.541000000    -0.696000000
H     2.237000000    -8.457000000    -0.441000000
H     2.583000000    -7.578000000    -1.624000000
O     0.465000000    -5.141000000    -0.083000000
H     0.825000000    -4.522000000    -0.719000000
H     1.055000000    -5.894000000    -0.123000000
O    -4.474000000    -0.686000000     2.711000000
H    -5.122000000    -1.237000000     2.271000000
H    -3.758000000    -1.285000000     2.926000000
O     2.782000000    -3.606000000    -3.689000000
H     2.238000000    -3.514000000    -2.907000000
H     3.678000000    -3.650000000    -3.355000000
