144
-2820.15828
O    -1.450000000    -5.832000000    -3.053000000
H    -0.798000000    -6.532000000    -3.011000000
H    -1.844000000    -5.819000000    -2.180000000
O     1.094000000     5.132000000     1.450000000
H     0.713000000     4.599000000     2.148000000
H     1.769000000     4.575000000     1.064000000
O     3.666000000     3.602000000     0.969000000
H     4.152000000     3.382000000     0.174000000
H     3.577000000     2.770000000     1.434000000
O     1.565000000    -4.444000000    -0.210000000
H     2.484000000    -4.264000000    -0.014000000
H     1.327000000    -5.154000000     0.386000000
O    -4.295000000    -4.816000000    -3.419000000
H    -4.405000000    -3.891000000    -3.201000000
H    -3.374000000    -4.998000000    -3.235000000
O    -4.950000000     0.602000000    -2.946000000
H    -4.267000000     0.355000000    -3.569000000
H    -4.627000000     1.409000000    -2.544000000
O     1.818000000     1.912000000     3.621000000
H     2.317000000     2.280000000     4.350000000
H     2.480000000     1.680000000     2.971000000
O     6.220000000     0.171000000    -2.295000000
H     5.474000000     0.016000000    -2.873000000
H     5.890000000    -0.029000000    -1.419000000
O     6.197000000     3.912000000     3.557000000
H     5.527000000     4.496000000     3.202000000
H     5.976000000     3.051000000     3.203000000
O    -3.259000000    -0.366000000    -5.092000000
H    -2.661000000     0.283000000    -5.463000000
H    -2.931000000    -1.206000000    -5.414000000
O     0.256000000    -5.609000000     1.826000000
H    -0.517000000    -5.044000000     1.858000000
H     0.601000000    -5.593000000     2.718000000
O    -5.530000000    -2.332000000    -2.622000000
H    -6.385000000    -2.659000000    -2.342000000
H    -5.728000000    -1.534000000    -3.113000000
O    -4.389000000    -2.990000000     0.361000000
H    -5.264000000    -3.373000000     0.419000000
H    -4.443000000    -2.380000000    -0.375000000
O     2.035000000     6.136000000    -1.462000000
H     2.063000000     6.307000000    -0.520000000
H     1.113000000     5.957000000    -1.645000000
O     7.750000000    -2.388000000    -0.665000000
H     8.450000000    -1.743000000    -0.559000000
H     7.028000000    -2.046000000    -0.137000000
O     3.978000000    -0.686000000    -3.277000000
H     3.698000000    -1.588000000    -3.126000000
H     3.162000000    -0.198000000    -3.391000000
O    -0.403000000     5.927000000    -2.539000000
H    -0.964000000     6.398000000    -3.155000000
H    -0.577000000     6.340000000    -1.693000000
O     8.072000000    -2.299000000     2.916000000
H     8.625000000    -1.971000000     3.625000000
H     7.375000000    -1.648000000     2.835000000
O     0.788000000    -0.275000000    -2.878000000
H     0.211000000    -0.990000000    -3.146000000
H     0.551000000    -0.107000000    -1.965000000
O     8.233000000     1.620000000     1.287000000
H     7.381000000     1.664000000     0.854000000
H     8.026000000     1.438000000     2.204000000
O    -2.708000000    -5.147000000    -0.712000000
H    -3.442000000    -4.604000000    -0.423000000
H    -2.594000000    -5.788000000    -0.010000000
O     2.366000000    -5.614000000     3.697000000
H     2.793000000    -6.141000000     3.021000000
H     2.712000000    -4.731000000     3.567000000
O     3.106000000    -2.973000000    -2.524000000
H     3.538000000    -3.284000000    -1.729000000
H     2.380000000    -3.582000000    -2.656000000
O    -0.206000000    -0.030000000     3.679000000
H     0.075000000    -0.893000000     3.374000000
H     0.559000000     0.530000000     3.549000000
O     3.798000000    -1.807000000     5.802000000
H     3.720000000    -2.527000000     6.429000000
H     3.904000000    -1.027000000     6.346000000
O     4.059000000     5.327000000     2.957000000
H     3.798000000     4.895000000     2.144000000
H     3.340000000     5.152000000     3.563000000
O     5.336000000    -1.255000000    -0.016000000
H     4.627000000    -0.878000000     0.505000000
H     4.924000000    -1.967000000    -0.504000000
O    -3.536000000    -2.607000000     3.081000000
H    -3.636000000    -2.732000000     2.137000000
H    -4.295000000    -2.083000000     3.335000000
O    -1.455000000     1.941000000    -5.886000000
H    -1.265000000     2.298000000    -5.018000000
H    -1.485000000     2.707000000    -6.458000000
O    -0.570000000     3.362000000     2.972000000
H    -0.053000000     2.591000000     3.208000000
H    -1.279000000     3.017000000     2.430000000
O    -6.864000000     2.815000000     0.707000000
H    -7.317000000     3.132000000     1.489000000
H    -6.147000000     3.435000000     0.578000000
O     4.112000000     2.902000000     5.446000000
H     5.022000000     3.014000000     5.172000000
H     3.910000000     3.698000000     5.938000000
O     4.659000000    -4.047000000    -0.558000000
H     4.683000000    -4.657000000    -1.296000000
H     5.273000000    -4.416000000     0.077000000
O    -6.119000000     0.383000000     1.077000000
H    -6.132000000     1.338000000     1.014000000
H    -6.737000000     0.090000000     0.406000000
O    -5.796000000    -1.121000000     3.370000000
H    -5.684000000    -0.457000000     2.689000000
H    -6.382000000    -1.768000000     2.978000000
O    -6.979000000     1.759000000    -4.360000000
H    -6.218000000     1.426000000    -3.885000000
H    -7.483000000     2.236000000    -3.701000000
O     5.267000000    -1.153000000     3.453000000
H     4.624000000    -1.338000000     2.769000000
H     4.816000000    -1.366000000     4.270000000
O     1.561000000    -2.683000000     4.003000000
H     2.154000000    -2.388000000     4.695000000
H     2.093000000    -2.661000000     3.207000000
O    -4.044000000     3.239000000    -1.956000000
H    -4.849000000     3.756000000    -1.965000000
H    -3.565000000     3.529000000    -2.733000000
O    -2.811000000     0.582000000     3.923000000
H    -1.877000000     0.543000000     3.718000000
H    -2.924000000    -0.037000000     4.645000000
O    -2.118000000     5.218000000     0.046000000
H    -2.439000000     4.753000000     0.818000000
H    -2.471000000     4.724000000    -0.695000000
O     3.209000000     2.765000000    -1.855000000
H     2.735000000     2.047000000    -1.434000000
H     3.371000000     2.455000000    -2.746000000
O    -3.181000000     3.188000000     1.766000000
H    -3.763000000     3.386000000     2.500000000
H    -3.269000000     2.244000000     1.638000000
O     0.089000000    -3.673000000    -2.458000000
H     0.461000000    -3.816000000    -1.588000000
H    -0.508000000    -4.409000000    -2.588000000
O    -0.034000000     3.685000000    -3.982000000
H    -0.342000000     4.084000000    -3.168000000
H     0.731000000     4.204000000    -4.229000000
O     3.893000000    -3.938000000     2.154000000
H     4.798000000    -4.232000000     2.053000000
H     3.871000000    -3.082000000     1.725000000
O     4.682000000     4.936000000    -1.502000000
H     4.249000000     4.085000000    -1.571000000
H     3.981000000     5.573000000    -1.642000000
O     5.623000000     1.532000000     2.643000000
H     5.940000000     0.771000000     3.129000000
H     4.809000000     1.234000000     2.236000000
