144
-2797.65866
O    -2.900000000    -2.931000000    -2.133000000
H    -2.135000000    -3.430000000    -2.419000000
H    -3.444000000    -3.569000000    -1.671000000
O     0.976000000     2.498000000     1.248000000
H     0.290000000     1.903000000     0.944000000
H     1.667000000     2.424000000     0.590000000
O     2.154000000    -3.700000000    -3.216000000
H     2.581000000    -2.874000000    -2.991000000
H     2.811000000    -4.369000000    -3.025000000
O    -0.517000000    -4.118000000    -2.541000000
H    -0.453000000    -4.957000000    -2.084000000
H     0.385000000    -3.903000000    -2.777000000
O    -4.933000000    -1.488000000    -3.695000000
H    -4.862000000    -1.755000000    -2.779000000
H    -4.641000000    -0.577000000    -3.702000000
O    -0.582000000    -3.272000000     5.340000000
H    -0.588000000    -2.822000000     6.185000000
H    -1.385000000    -2.982000000     4.908000000
O     5.563000000     0.306000000     2.492000000
H     4.704000000     0.159000000     2.887000000
H     5.406000000     0.257000000     1.549000000
O    -2.946000000     1.112000000    -4.429000000
H    -2.153000000     0.747000000    -4.037000000
H    -3.065000000     0.614000000    -5.238000000
O     5.628000000     1.842000000    -3.272000000
H     5.984000000     0.960000000    -3.169000000
H     6.251000000     2.286000000    -3.848000000
O    -1.724000000    -2.590000000     0.538000000
H    -2.167000000    -2.500000000    -0.305000000
H    -1.404000000    -1.710000000     0.736000000
O     5.919000000    -5.325000000     3.087000000
H     6.249000000    -5.122000000     3.963000000
H     5.593000000    -4.488000000     2.755000000
O     7.029000000    -2.039000000     1.958000000
H     6.177000000    -2.390000000     2.215000000
H     7.005000000    -1.123000000     2.236000000
O     1.952000000     1.201000000    -6.994000000
H     1.984000000     0.572000000    -7.714000000
H     1.146000000     0.987000000    -6.524000000
O     2.447000000    -6.852000000     4.293000000
H     2.544000000    -6.872000000     5.245000000
H     2.328000000    -5.926000000     4.084000000
O    -0.789000000     5.409000000    -2.345000000
H    -1.694000000     5.419000000    -2.034000000
H    -0.273000000     5.684000000    -1.587000000
O     2.848000000    -0.035000000    -3.770000000
H     3.511000000    -0.225000000    -3.107000000
H     3.180000000     0.737000000    -4.227000000
O    -0.839000000     0.493000000     5.456000000
H    -1.271000000    -0.246000000     5.028000000
H    -1.385000000     0.680000000     6.220000000
O     7.896000000     1.193000000     0.483000000
H     6.942000000     1.123000000     0.503000000
H     8.067000000     2.005000000     0.006000000
O     4.675000000    -2.008000000     5.891000000
H     5.447000000    -2.272000000     6.391000000
H     4.013000000    -2.664000000     6.109000000
O     4.593000000    -3.956000000    -0.032000000
H     3.985000000    -4.247000000    -0.711000000
H     4.058000000    -3.426000000     0.558000000
O     0.723000000    -4.772000000     0.617000000
H     1.145000000    -4.842000000     1.474000000
H    -0.031000000    -4.203000000     0.767000000
O     1.851000000     1.342000000     6.002000000
H     2.390000000     0.729000000     5.502000000
H     0.959000000     1.006000000     5.911000000
O    -3.641000000     3.650000000    -4.791000000
H    -3.476000000     2.720000000    -4.950000000
H    -2.819000000     4.082000000    -5.023000000
O     5.161000000     0.195000000    -0.126000000
H     5.810000000    -0.136000000    -0.746000000
H     4.563000000    -0.540000000     0.011000000
O    -3.812000000     5.144000000    -1.830000000
H    -4.352000000     4.741000000    -2.510000000
H    -3.762000000     4.483000000    -1.140000000
O     0.392000000     0.012000000    -5.199000000
H    -0.218000000    -0.495000000    -4.663000000
H     1.238000000    -0.093000000    -4.763000000
O    -2.495000000    -1.501000000     4.555000000
H    -2.826000000    -1.536000000     3.657000000
H    -3.232000000    -1.168000000     5.068000000
O     2.273000000    -3.579000000     6.099000000
H     1.419000000    -3.189000000     6.287000000
H     2.259000000    -4.418000000     6.559000000
O     3.543000000    -5.729000000    -2.169000000
H     3.112000000    -6.001000000    -1.358000000
H     4.299000000    -6.309000000    -2.245000000
O    -0.213000000     4.360000000     3.008000000
H    -0.079000000     5.241000000     2.658000000
H     0.270000000     3.789000000     2.411000000
O     3.338000000     2.520000000    -5.076000000
H     2.633000000     2.179000000    -5.627000000
H     3.950000000     2.921000000    -5.692000000
O     4.128000000    -2.039000000    -2.172000000
H     3.863000000    -2.178000000    -1.262000000
H     5.000000000    -2.431000000    -2.229000000
O    -3.003000000    -4.477000000     1.978000000
H    -2.431000000    -3.777000000     1.664000000
H    -3.797000000    -4.027000000     2.265000000
O    -6.804000000     0.598000000     1.695000000
H    -6.829000000    -0.343000000     1.869000000
H    -6.496000000     0.985000000     2.514000000
O    -2.323000000     3.002000000     4.545000000
H    -1.395000000     3.130000000     4.348000000
H    -2.547000000     2.176000000     4.117000000
O    -5.629000000     0.140000000    -1.295000000
H    -5.701000000     0.246000000    -0.346000000
H    -6.506000000     0.338000000    -1.624000000
O     2.955000000    -2.794000000    -6.078000000
H     2.134000000    -2.932000000    -6.550000000
H     2.757000000    -3.043000000    -5.175000000
O     4.707000000    -2.615000000     2.961000000
H     3.917000000    -2.195000000     2.619000000
H     4.668000000    -2.464000000     3.905000000
O     7.331000000    -4.012000000     0.080000000
H     7.353000000    -3.356000000     0.776000000
H     6.404000000    -4.233000000    -0.012000000
O    -3.129000000     4.676000000     2.359000000
H    -2.194000000     4.746000000     2.165000000
H    -3.164000000     4.347000000     3.257000000
O     3.922000000     3.793000000    -2.735000000
H     4.695000000     3.262000000    -2.927000000
H     3.216000000     3.374000000    -3.227000000
O    -5.466000000     3.695000000     0.721000000
H    -6.010000000     3.155000000     1.294000000
H    -4.725000000     3.955000000     1.269000000
O     0.973000000     5.283000000    -4.396000000
H     0.412000000     5.128000000    -3.636000000
H     1.129000000     6.227000000    -4.390000000
O     3.583000000     2.579000000     0.187000000
H     3.896000000     2.920000000    -0.651000000
H     4.055000000     1.754000000     0.302000000
O    -6.993000000     2.339000000    -2.583000000
H    -7.462000000     2.261000000    -1.752000000
H    -6.180000000     1.853000000    -2.445000000
O    -1.250000000    -1.304000000    -3.501000000
H    -0.565000000    -1.638000000    -2.922000000
H    -2.040000000    -1.771000000    -3.231000000
O     1.388000000    -4.154000000     3.163000000
H     1.176000000    -3.938000000     4.071000000
H     1.834000000    -3.375000000     2.830000000
O     3.155000000    -0.281000000     4.304000000
H     3.648000000    -0.841000000     4.903000000
H     2.874000000    -0.869000000     3.603000000
