144
-2821.48196
O    -2.137000000     1.063000000     5.007000000
H    -1.352000000     0.691000000     4.606000000
H    -2.625000000     1.440000000     4.274000000
O     3.110000000     4.773000000    -3.639000000
H     3.120000000     4.140000000    -2.921000000
H     3.807000000     5.392000000    -3.422000000
O     2.583000000    -0.204000000     5.141000000
H     1.809000000    -0.296000000     4.586000000
H     2.303000000     0.376000000     5.850000000
O    -2.789000000    -1.771000000    -2.895000000
H    -2.792000000    -1.925000000    -3.840000000
H    -2.106000000    -1.114000000    -2.762000000
O    -3.741000000     4.606000000     3.705000000
H    -2.822000000     4.520000000     3.961000000
H    -4.122000000     5.181000000     4.369000000
O    -3.001000000     4.548000000    -2.601000000
H    -3.293000000     3.776000000    -3.086000000
H    -3.462000000     5.278000000    -3.014000000
O     1.127000000     2.329000000     6.643000000
H     1.424000000     2.775000000     7.437000000
H     0.361000000     1.829000000     6.922000000
O    -5.398000000     2.302000000     1.211000000
H    -4.910000000     3.042000000     0.850000000
H    -4.965000000     2.114000000     2.044000000
O    -3.113000000     0.840000000    -5.745000000
H    -3.600000000     1.242000000    -5.026000000
H    -3.569000000     1.130000000    -6.535000000
O    -1.587000000    -5.187000000     1.658000000
H    -1.943000000    -4.520000000     1.071000000
H    -1.452000000    -4.728000000     2.487000000
O    -3.094000000    -5.203000000     5.290000000
H    -4.038000000    -5.073000000     5.194000000
H    -2.705000000    -4.409000000     4.925000000
O     3.485000000     2.906000000    -1.425000000
H     4.203000000     2.910000000    -2.058000000
H     3.606000000     2.095000000    -0.931000000
O     4.165000000    -2.556000000    -1.843000000
H     4.995000000    -3.025000000    -1.928000000
H     4.412000000    -1.686000000    -1.530000000
O    -0.423000000     0.020000000     8.082000000
H    -0.442000000    -0.666000000     7.415000000
H     0.212000000    -0.291000000     8.728000000
O     0.936000000    -6.470000000     1.241000000
H     1.318000000    -5.968000000     0.521000000
H    -0.003000000    -6.290000000     1.185000000
O     0.052000000    -1.878000000     6.208000000
H     0.366000000    -1.662000000     5.330000000
H    -0.810000000    -2.268000000     6.066000000
O     4.880000000    -4.521000000     3.794000000
H     4.927000000    -3.682000000     4.251000000
H     4.139000000    -4.427000000     3.195000000
O     3.996000000    -0.948000000     1.927000000
H     3.578000000    -1.594000000     2.498000000
H     4.879000000    -1.290000000     1.785000000
O    -4.678000000    -0.153000000     5.959000000
H    -4.538000000    -1.091000000     5.830000000
H    -4.032000000     0.266000000     5.390000000
O    -2.080000000     1.939000000     7.597000000
H    -2.377000000     1.708000000     6.717000000
H    -1.552000000     1.191000000     7.876000000
O    -4.486000000     1.836000000     3.577000000
H    -5.168000000     1.605000000     4.208000000
H    -4.404000000     2.787000000     3.649000000
O    -1.239000000     5.210000000     0.980000000
H    -1.052000000     4.948000000     1.881000000
H    -0.509000000     4.855000000     0.472000000
O     2.062000000    -4.336000000    -0.339000000
H     2.901000000    -3.942000000    -0.578000000
H     1.480000000    -4.117000000    -1.066000000
O    -4.683000000     2.375000000    -3.908000000
H    -5.127000000     2.681000000    -4.699000000
H    -5.382000000     2.006000000    -3.369000000
O    -0.117000000    -5.168000000     6.645000000
H    -0.253000000    -4.754000000     7.497000000
H    -0.313000000    -4.478000000     6.010000000
O     0.397000000    -4.076000000    -2.309000000
H     0.850000000    -4.542000000    -3.012000000
H    -0.486000000    -4.446000000    -2.307000000
O     1.927000000    -2.693000000    -6.851000000
H     2.028000000    -2.512000000    -5.916000000
H     0.985000000    -2.816000000    -6.970000000
O    -4.648000000    -0.410000000     0.710000000
H    -5.358000000    -0.606000000     0.098000000
H    -4.538000000     0.539000000     0.653000000
O    -2.633000000    -2.562000000     0.631000000
H    -3.331000000    -1.908000000     0.626000000
H    -1.883000000    -2.116000000     0.238000000
O     2.102000000    -6.418000000     3.690000000
H     1.524000000    -6.482000000     2.930000000
H     2.402000000    -5.509000000     3.687000000
O    -1.772000000    -2.999000000     4.104000000
H    -2.355000000    -2.355000000     3.703000000
H    -0.892000000    -2.696000000     3.883000000
O     4.854000000    -1.913000000     5.073000000
H     5.763000000    -1.725000000     4.840000000
H     4.378000000    -1.114000000     4.846000000
O     0.833000000     5.098000000    -4.944000000
H     1.600000000     5.234000000    -4.388000000
H     0.565000000     4.197000000    -4.767000000
O     0.227000000     1.863000000    -6.074000000
H    -0.606000000     1.392000000    -6.055000000
H     0.892000000     1.177000000    -6.028000000
O     3.933000000     1.434000000     3.472000000
H     4.220000000     0.700000000     2.929000000
H     3.407000000     1.029000000     4.162000000
O    -1.226000000    -0.899000000    -7.249000000
H    -1.805000000    -0.249000000    -6.852000000
H    -1.357000000    -0.793000000    -8.192000000
O     2.910000000     0.842000000    -6.254000000
H     3.368000000     1.660000000    -6.061000000
H     3.608000000     0.191000000    -6.337000000
O    -4.101000000    -1.303000000     3.284000000
H    -4.011000000    -0.643000000     2.597000000
H    -5.007000000    -1.603000000     3.212000000
O     2.147000000    -2.663000000    -3.868000000
H     2.802000000    -2.440000000    -3.207000000
H     1.312000000    -2.624000000    -3.402000000
O    -0.738000000     4.552000000     3.633000000
H    -0.336000000     3.684000000     3.610000000
H    -0.525000000     4.892000000     4.501000000
O    -3.646000000     3.833000000     0.151000000
H    -2.751000000     3.896000000     0.484000000
H    -3.578000000     4.092000000    -0.768000000
O     1.106000000     4.412000000    -0.194000000
H     1.329000000     4.367000000     0.736000000
H     1.943000000     4.301000000    -0.646000000
O     2.494000000     3.640000000     2.089000000
H     3.409000000     3.402000000     2.235000000
H     2.000000000     3.063000000     2.672000000
O     3.265000000     0.423000000    -0.105000000
H     3.615000000    -0.133000000     0.591000000
H     2.328000000     0.230000000    -0.117000000
O    -0.281000000     5.709000000    -2.154000000
H    -1.079000000     5.201000000    -2.006000000
H     0.329000000     5.396000000    -1.487000000
O     2.571000000    -3.520000000     2.628000000
H     1.959000000    -2.816000000     2.842000000
H     2.341000000    -3.774000000     1.735000000
O    -3.016000000    -2.616000000    -5.699000000
H    -2.174000000    -2.505000000    -6.141000000
H    -3.627000000    -2.843000000    -6.401000000
O     0.801000000     2.511000000     3.974000000
H     1.006000000     2.576000000     4.906000000
H     0.553000000     1.595000000     3.846000000
