144
-2812.82644
O    -0.794000000     2.880000000     3.546000000
H    -0.395000000     3.459000000     4.196000000
H    -1.364000000     2.305000000     4.055000000
O    -4.954000000     0.428000000    -2.379000000
H    -4.946000000    -0.150000000    -1.616000000
H    -4.600000000     1.257000000    -2.055000000
O     7.052000000    -0.146000000     2.172000000
H     6.226000000     0.228000000     1.866000000
H     6.884000000    -0.385000000     3.084000000
O     3.664000000     3.855000000    -3.660000000
H     4.610000000     3.793000000    -3.524000000
H     3.393000000     4.598000000    -3.120000000
O     1.768000000     0.925000000    -7.133000000
H     2.199000000     0.114000000    -6.865000000
H     1.082000000     0.643000000    -7.737000000
O    -2.599000000    -6.200000000     3.379000000
H    -3.409000000    -5.694000000     3.439000000
H    -1.919000000    -5.600000000     3.686000000
O    -1.156000000     0.731000000    -4.625000000
H    -1.463000000     1.334000000    -3.948000000
H    -1.329000000    -0.140000000    -4.266000000
O    -3.139000000    -3.390000000     6.805000000
H    -3.449000000    -3.843000000     7.589000000
H    -2.261000000    -3.087000000     7.034000000
O     1.494000000     1.217000000     5.978000000
H     2.159000000     1.283000000     5.292000000
H     0.875000000     0.567000000     5.648000000
O     3.901000000     3.209000000     2.011000000
H     3.523000000     3.882000000     1.445000000
H     4.838000000     3.232000000     1.818000000
O     0.067000000     4.207000000     1.320000000
H    -0.379000000     3.742000000     0.611000000
H    -0.340000000     3.871000000     2.119000000
O    -4.211000000    -2.777000000    -2.516000000
H    -5.062000000    -2.795000000    -2.954000000
H    -4.318000000    -2.137000000    -1.812000000
O    -5.554000000    -2.793000000     2.482000000
H    -5.116000000    -2.319000000     1.776000000
H    -4.850000000    -3.030000000     3.086000000
O    -5.811000000    -5.191000000     0.730000000
H    -4.989000000    -4.847000000     0.380000000
H    -6.149000000    -4.489000000     1.285000000
O    -3.635000000    -3.489000000     4.080000000
H    -3.094000000    -2.912000000     3.542000000
H    -3.231000000    -3.456000000     4.948000000
O    -0.308000000    -4.292000000     4.117000000
H    -0.795000000    -3.471000000     4.039000000
H     0.402000000    -4.211000000     3.481000000
O     5.305000000     1.729000000    -0.041000000
H     5.107000000     0.811000000     0.148000000
H     4.449000000     2.155000000    -0.083000000
O    -4.023000000     1.229000000     1.913000000
H    -3.095000000     0.997000000     1.937000000
H    -4.040000000     2.171000000     2.083000000
O    -2.611000000    -6.279000000     0.511000000
H    -3.112000000    -6.528000000     1.288000000
H    -3.074000000    -5.517000000     0.162000000
O     2.423000000     4.861000000    -0.031000000
H     2.014000000     5.288000000    -0.784000000
H     1.691000000     4.621000000     0.536000000
O    -4.712000000    -0.816000000     0.029000000
H    -4.131000000    -1.420000000     0.493000000
H    -4.701000000    -0.019000000     0.559000000
O     7.852000000     2.577000000    -0.912000000
H     6.915000000     2.407000000    -0.812000000
H     8.190000000     1.801000000    -1.358000000
O    -1.615000000    -1.007000000    -7.007000000
H    -0.872000000    -0.840000000    -7.587000000
H    -1.299000000    -0.766000000    -6.137000000
O    -1.476000000     3.892000000    -3.233000000
H    -0.729000000     4.393000000    -3.560000000
H    -1.186000000     3.557000000    -2.384000000
O    -3.663000000     2.613000000     5.169000000
H    -4.436000000     2.262000000     5.610000000
H    -3.081000000     1.860000000     5.068000000
O    -4.092000000    -0.494000000     6.634000000
H    -4.086000000    -0.158000000     7.530000000
H    -4.325000000    -1.418000000     6.726000000
O     3.232000000     1.127000000     3.820000000
H     3.157000000     0.376000000     3.232000000
H     3.535000000     1.841000000     3.260000000
O     3.893000000    -1.528000000     5.638000000
H     3.512000000    -1.602000000     4.763000000
H     3.822000000    -0.598000000     5.853000000
O     0.314000000    -0.930000000     4.796000000
H    -0.097000000    -1.320000000     5.568000000
H    -0.197000000    -1.263000000     4.058000000
O     1.701000000    -3.177000000    -1.441000000
H     1.207000000    -3.668000000    -0.785000000
H     1.061000000    -2.977000000    -2.123000000
O    -0.815000000    -2.132000000     7.138000000
H    -0.648000000    -1.392000000     7.721000000
H    -0.188000000    -2.800000000     7.414000000
O     6.519000000    -1.417000000    -1.829000000
H     5.987000000    -0.793000000    -2.322000000
H     5.886000000    -1.913000000    -1.309000000
O     0.264000000     5.815000000    -4.630000000
H    -0.141000000     6.114000000    -5.443000000
H     0.598000000     4.942000000    -4.836000000
O    -2.313000000     0.320000000     4.700000000
H    -2.752000000    -0.073000000     5.455000000
H    -2.067000000    -0.425000000     4.152000000
O    -1.438000000    -1.949000000    -4.165000000
H    -0.825000000    -2.400000000    -4.746000000
H    -2.207000000    -2.518000000    -4.141000000
O     4.666000000    -2.762000000    -0.406000000
H     3.909000000    -2.740000000    -0.991000000
H     4.661000000    -3.646000000    -0.041000000
O    -0.170000000    -5.181000000     0.498000000
H     0.199000000    -5.906000000    -0.005000000
H    -1.112000000    -5.347000000     0.503000000
O     4.434000000    -0.376000000     1.381000000
H     3.712000000    -0.834000000     1.810000000
H     4.819000000    -1.029000000     0.796000000
O    -5.806000000     0.769000000     4.477000000
H    -5.482000000     0.688000000     3.580000000
H    -5.401000000     0.038000000     4.945000000
O     4.930000000     0.217000000    -3.910000000
H     5.024000000     0.596000000    -4.783000000
H     4.303000000     0.788000000    -3.467000000
O    -1.791000000     2.503000000    -0.557000000
H    -2.707000000     2.579000000    -0.823000000
H    -1.679000000     1.576000000    -0.347000000
O     1.675000000     6.324000000    -2.194000000
H     1.213000000     6.127000000    -3.009000000
H     1.752000000     7.278000000    -2.188000000
O    -3.606000000    -3.992000000    -0.031000000
H    -3.322000000    -3.329000000     0.598000000
H    -3.537000000    -3.560000000    -0.882000000
O     2.381000000    -1.364000000     3.042000000
H     1.639000000    -1.246000000     3.635000000
H     2.209000000    -2.199000000     2.607000000
O     2.579000000    -1.690000000    -6.671000000
H     2.916000000    -2.162000000    -7.432000000
H     3.257000000    -1.797000000    -6.004000000
O     1.039000000     3.311000000    -4.728000000
H     1.809000000     3.326000000    -4.159000000
H     1.147000000     2.521000000    -5.257000000
O    -0.555000000    -5.818000000     6.232000000
H    -0.287000000    -5.251000000     5.509000000
H    -0.801000000    -5.214000000     6.932000000
O     1.826000000    -3.797000000     2.425000000
H     1.493000000    -4.216000000     1.631000000
H     2.403000000    -4.453000000     2.817000000
