144
-2843.26607
O    -1.889000000     2.068000000     3.824000000
H    -2.320000000     1.246000000     3.590000000
H    -2.575000000     2.586000000     4.246000000
O     5.457000000     2.401000000    -0.720000000
H     4.738000000     2.785000000    -1.223000000
H     5.981000000     3.151000000    -0.441000000
O     3.747000000    -2.078000000     0.395000000
H     3.160000000    -2.282000000     1.122000000
H     3.460000000    -2.653000000    -0.314000000
O     3.155000000     4.107000000    -1.015000000
H     2.231000000     4.356000000    -0.995000000
H     3.508000000     4.558000000    -1.782000000
O    -3.980000000    -1.875000000    -1.218000000
H    -4.218000000    -2.380000000    -1.995000000
H    -3.288000000    -1.286000000    -1.518000000
O     0.678000000     4.564000000    -0.209000000
H     0.634000000     3.914000000     0.493000000
H    -0.131000000     4.437000000    -0.704000000
O    -2.371000000    -1.886000000    -4.806000000
H    -1.491000000    -1.709000000    -5.138000000
H    -2.326000000    -2.783000000    -4.475000000
O     3.845000000     4.832000000    -3.554000000
H     3.819000000     4.491000000    -4.447000000
H     3.463000000     5.708000000    -3.621000000
O     1.464000000    -3.804000000     6.229000000
H     1.709000000    -2.910000000     5.990000000
H     0.818000000    -3.696000000     6.926000000
O    -4.272000000     1.413000000    -1.430000000
H    -3.393000000     1.172000000    -1.137000000
H    -4.393000000     0.930000000    -2.248000000
O     1.963000000     1.840000000     1.735000000
H     2.580000000     1.110000000     1.684000000
H     1.321000000     1.659000000     1.049000000
O    -4.191000000     1.479000000    -5.392000000
H    -4.279000000     2.414000000    -5.206000000
H    -3.263000000     1.292000000    -5.251000000
O    -5.144000000     1.976000000     2.075000000
H    -5.323000000     2.916000000     2.046000000
H    -4.796000000     1.772000000     1.207000000
O    -4.503000000    -1.779000000     1.394000000
H    -4.015000000    -1.175000000     1.953000000
H    -4.284000000    -1.509000000     0.502000000
O    -0.785000000     7.124000000    -3.124000000
H    -1.516000000     7.258000000    -2.520000000
H    -0.619000000     6.182000000    -3.094000000
O     4.454000000    -0.433000000    -3.013000000
H     5.310000000    -0.620000000    -2.626000000
H     3.966000000     0.001000000    -2.314000000
O    -2.605000000    -2.643000000     5.383000000
H    -2.612000000    -2.372000000     4.465000000
H    -3.502000000    -2.931000000     5.555000000
O     4.350000000     0.319000000     1.585000000
H     4.798000000     0.954000000     1.027000000
H     4.171000000    -0.423000000     1.007000000
O    -3.676000000    -4.587000000     1.447000000
H    -4.144000000    -3.761000000     1.324000000
H    -2.923000000    -4.358000000     1.992000000
O     2.584000000     1.096000000    -6.950000000
H     3.003000000     0.982000000    -7.803000000
H     3.311000000     1.230000000    -6.342000000
O    -3.897000000     4.935000000    -2.194000000
H    -3.816000000     4.367000000    -1.427000000
H    -3.339000000     5.687000000    -1.995000000
O     3.481000000     6.582000000     0.172000000
H     3.569000000     5.846000000    -0.434000000
H     2.581000000     6.884000000     0.052000000
O    -4.531000000     0.181000000     4.067000000
H    -3.673000000    -0.201000000     3.883000000
H    -4.808000000     0.559000000     3.232000000
O    -2.831000000     4.510000000     0.735000000
H    -3.412000000     4.560000000     1.494000000
H    -1.983000000     4.255000000     1.099000000
O    -5.823000000     1.922000000     5.564000000
H    -6.641000000     1.963000000     5.067000000
H    -5.304000000     1.254000000     5.116000000
O    -0.117000000    -5.964000000     5.447000000
H     0.352000000    -6.538000000     6.052000000
H     0.354000000    -5.132000000     5.492000000
O     1.845000000    -1.084000000     7.366000000
H     1.182000000    -0.806000000     6.733000000
H     1.367000000    -1.168000000     8.191000000
O    -0.971000000    -3.102000000     7.676000000
H    -1.549000000    -3.780000000     8.025000000
H    -1.517000000    -2.613000000     7.061000000
O    -1.475000000     1.334000000    -5.143000000
H    -0.824000000     2.006000000    -4.941000000
H    -0.965000000     0.606000000    -5.498000000
O    -1.678000000     0.542000000     7.267000000
H    -1.205000000     1.269000000     6.862000000
H    -1.573000000     0.681000000     8.208000000
O    -0.131000000    -5.979000000     0.585000000
H     0.683000000    -5.759000000     1.038000000
H    -0.822000000    -5.674000000     1.173000000
O    -2.413000000    -0.283000000    -2.682000000
H    -2.661000000    -0.637000000    -3.535000000
H    -1.663000000     0.283000000    -2.867000000
O     2.357000000    -4.174000000    -1.292000000
H     2.749000000    -5.038000000    -1.166000000
H     1.457000000    -4.356000000    -1.561000000
O     1.645000000     0.872000000     4.912000000
H     1.770000000     1.007000000     3.973000000
H     1.104000000     0.085000000     4.972000000
O     6.846000000     0.153000000    -1.574000000
H     6.360000000     0.958000000    -1.393000000
H     7.194000000    -0.113000000    -0.723000000
O     5.027000000     0.953000000    -5.267000000
H     4.707000000     0.378000000    -4.572000000
H     5.589000000     1.583000000    -4.816000000
O    -0.447000000     3.668000000     2.224000000
H     0.463000000     3.533000000     2.487000000
H    -0.950000000     3.084000000     2.792000000
O     6.782000000    -3.012000000    -0.089000000
H     5.885000000    -2.697000000    -0.200000000
H     7.103000000    -2.553000000     0.687000000
O    -0.803000000     4.469000000    -2.961000000
H    -1.753000000     4.349000000    -2.969000000
H    -0.498000000     4.019000000    -3.748000000
O     0.527000000     3.169000000    -5.100000000
H     1.363000000     2.905000000    -5.483000000
H     0.348000000     4.028000000    -5.484000000
O    -5.266000000    -2.808000000     4.519000000
H    -6.002000000    -2.932000000     5.118000000
H    -5.212000000    -1.860000000     4.398000000
O     2.339000000    -3.811000000     2.935000000
H     1.496000000    -4.108000000     3.278000000
H     2.810000000    -4.618000000     2.727000000
O     2.165000000    -2.684000000    -3.670000000
H     2.339000000    -3.187000000    -2.874000000
H     2.926000000    -2.110000000    -3.761000000
O    -0.052000000    -0.896000000    -6.017000000
H    -0.297000000    -0.803000000    -6.938000000
H     0.896000000    -0.764000000    -6.007000000
O    -2.602000000     6.990000000    -0.837000000
H    -2.287000000     6.454000000    -0.109000000
H    -2.764000000     7.850000000    -0.449000000
O    -0.075000000    -1.249000000     5.292000000
H    -0.347000000    -1.812000000     4.567000000
H    -0.895000000    -0.929000000     5.667000000
O    -1.227000000    -4.878000000     2.905000000
H    -1.022000000    -5.246000000     3.765000000
H    -0.979000000    -3.956000000     2.975000000
O     2.195000000    -3.503000000    -6.489000000
H     1.380000000    -3.941000000    -6.734000000
H     2.083000000    -3.287000000    -5.563000000
