144
-2795.73272
O     1.177000000     2.074000000     3.844000000
H     1.115000000     1.122000000     3.762000000
H     0.924000000     2.254000000     4.749000000
O     2.403000000     2.388000000     1.071000000
H     2.372000000     3.171000000     1.620000000
H     1.499000000     2.074000000     1.051000000
O     4.869000000    -1.618000000    -0.716000000
H     4.528000000    -2.203000000    -0.039000000
H     4.403000000    -1.875000000    -1.512000000
O    -0.909000000    -4.600000000    -5.222000000
H    -0.957000000    -5.555000000    -5.180000000
H    -0.201000000    -4.369000000    -4.621000000
O     0.983000000     5.935000000     0.009000000
H     1.044000000     5.446000000     0.829000000
H     0.320000000     5.468000000    -0.500000000
O    -0.180000000    -0.828000000    -6.284000000
H     0.700000000    -0.676000000    -5.941000000
H    -0.091000000    -1.602000000    -6.841000000
O    -3.883000000     2.613000000    -2.772000000
H    -3.920000000     1.657000000    -2.819000000
H    -3.405000000     2.873000000    -3.560000000
O     1.036000000    -3.998000000    -3.414000000
H     1.787000000    -4.438000000    -3.812000000
H     0.895000000    -4.463000000    -2.589000000
O     4.963000000     1.122000000     0.434000000
H     4.066000000     1.416000000     0.596000000
H     4.873000000     0.199000000     0.197000000
O    -2.758000000    -0.856000000    -5.219000000
H    -1.902000000    -0.891000000    -5.644000000
H    -3.060000000    -1.764000000    -5.213000000
O    -2.470000000    -4.376000000    -1.227000000
H    -2.375000000    -4.786000000    -0.367000000
H    -2.266000000    -5.074000000    -1.849000000
O    -3.965000000     5.628000000    -4.382000000
H    -3.482000000     6.028000000    -3.659000000
H    -3.594000000     4.750000000    -4.462000000
O    -3.588000000     3.286000000     3.168000000
H    -2.797000000     3.815000000     3.061000000
H    -3.266000000     2.389000000     3.253000000
O    -0.439000000    -1.956000000     5.920000000
H     0.084000000    -1.814000000     5.131000000
H    -1.032000000    -1.206000000     5.952000000
O    -1.971000000    -4.787000000     3.508000000
H    -2.321000000    -5.654000000     3.304000000
H    -1.127000000    -4.758000000     3.057000000
O     2.053000000    -4.078000000     4.760000000
H     1.744000000    -3.309000000     4.282000000
H     2.417000000    -3.725000000     5.572000000
O     0.790000000    -5.766000000    -1.134000000
H     1.036000000    -6.522000000    -0.602000000
H     0.800000000    -5.029000000    -0.523000000
O     6.809000000    -1.111000000     2.599000000
H     7.068000000    -0.308000000     3.051000000
H     5.852000000    -1.087000000     2.599000000
O     4.061000000     2.888000000     4.608000000
H     3.964000000     2.775000000     5.554000000
H     3.219000000     2.611000000     4.247000000
O    -3.095000000    -1.646000000    -0.785000000
H    -2.274000000    -1.173000000    -0.648000000
H    -2.825000000    -2.511000000    -1.094000000
O    -3.501000000     4.723000000     0.158000000
H    -4.241000000     4.115000000     0.145000000
H    -3.076000000     4.565000000     1.001000000
O    -1.450000000     1.863000000    -7.008000000
H    -1.198000000     1.215000000    -6.351000000
H    -0.789000000     1.777000000    -7.695000000
O     2.113000000     3.861000000    -3.659000000
H     2.646000000     3.170000000    -4.054000000
H     1.860000000     3.510000000    -2.805000000
O     1.890000000    -1.337000000     7.722000000
H     2.433000000    -2.125000000     7.744000000
H     1.155000000    -1.567000000     7.154000000
O    -4.732000000     1.119000000    -6.755000000
H    -4.260000000     0.901000000    -5.951000000
H    -5.656000000     1.057000000    -6.515000000
O    -1.360000000     4.456000000     2.247000000
H    -0.422000000     4.266000000     2.231000000
H    -1.424000000     5.369000000     1.966000000
O     4.173000000    -1.136000000     2.997000000
H     3.344000000    -1.546000000     2.752000000
H     4.041000000    -0.849000000     3.900000000
O    -3.324000000     6.566000000    -1.803000000
H    -3.219000000     5.974000000    -1.058000000
H    -3.553000000     7.408000000    -1.409000000
O    -2.610000000     1.023000000     6.627000000
H    -2.808000000     1.197000000     7.547000000
H    -1.705000000     1.315000000     6.517000000
O    -2.255000000     3.450000000    -4.913000000
H    -1.437000000     3.917000000    -4.743000000
H    -2.088000000     2.958000000    -5.716000000
O     0.647000000    -4.700000000     2.012000000
H     0.894000000    -3.835000000     2.339000000
H     1.445000000    -5.223000000     2.093000000
O     3.575000000    -5.918000000     2.491000000
H     4.068000000    -6.737000000     2.537000000
H     3.085000000    -5.887000000     3.313000000
O    -6.621000000     0.274000000    -4.570000000
H    -5.866000000     0.038000000    -4.031000000
H    -7.009000000     1.025000000    -4.121000000
O     0.115000000     1.828000000     6.710000000
H     0.049000000     2.775000000     6.588000000
H    -0.030000000     1.696000000     7.647000000
O     4.461000000    -5.283000000    -1.139000000
H     4.385000000    -4.498000000    -1.683000000
H     4.370000000    -4.962000000    -0.242000000
O    -4.246000000    -0.049000000    -3.283000000
H    -3.606000000    -0.392000000    -3.906000000
H    -4.164000000    -0.617000000    -2.517000000
O     4.096000000    -3.287000000    -3.386000000
H     5.024000000    -3.399000000    -3.593000000
H     3.670000000    -4.051000000    -3.774000000
O     2.624000000     2.235000000    -1.687000000
H     2.369000000     2.509000000    -0.806000000
H     3.570000000     2.379000000    -1.719000000
O     1.343000000     4.393000000     2.477000000
H     2.165000000     4.849000000     2.656000000
H     1.314000000     3.688000000     3.124000000
O    -1.063000000     4.781000000    -1.372000000
H    -1.987000000     4.581000000    -1.225000000
H    -1.004000000     4.962000000    -2.310000000
O    -0.333000000     5.163000000    -4.103000000
H     0.387000000     4.542000000    -4.212000000
H    -0.004000000     5.979000000    -4.482000000
O     0.436000000    -4.907000000     6.811000000
H    -0.266000000    -4.316000000     6.537000000
H     1.093000000    -4.835000000     6.119000000
O     3.133000000    -0.021000000     5.462000000
H     2.616000000    -0.210000000     6.245000000
H     2.511000000    -0.099000000     4.739000000
O     3.529000000     0.867000000    -3.998000000
H     3.002000000     0.074000000    -4.092000000
H     3.128000000     1.335000000    -3.265000000
O    -3.696000000     0.529000000     2.458000000
H    -4.448000000     0.671000000     1.882000000
H    -3.536000000    -0.413000000     2.415000000
O     5.634000000    -0.117000000     6.659000000
H     5.895000000    -1.023000000     6.491000000
H     4.782000000    -0.030000000     6.230000000
O     3.811000000    -3.729000000     1.093000000
H     3.952000000    -4.480000000     1.669000000
H     3.082000000    -3.254000000     1.493000000
O     2.056000000    -1.418000000    -4.668000000
H     2.652000000    -2.102000000    -4.974000000
H     1.378000000    -1.890000000    -4.184000000
