144
-2835.81431
O    -1.312000000    -5.605000000    -0.193000000
H    -2.040000000    -6.200000000    -0.011000000
H    -1.057000000    -5.270000000     0.667000000
O     3.283000000     5.688000000    -3.491000000
H     2.742000000     5.045000000    -3.948000000
H     3.564000000     5.242000000    -2.692000000
O    -1.008000000     5.760000000    -0.799000000
H    -0.506000000     5.483000000    -0.032000000
H    -0.988000000     5.002000000    -1.384000000
O    -1.101000000     1.809000000     4.613000000
H    -0.853000000     2.496000000     3.995000000
H    -1.951000000     1.501000000     4.301000000
O     3.311000000    -2.088000000    -2.110000000
H     2.476000000    -2.312000000    -1.700000000
H     3.943000000    -2.685000000    -1.710000000
O    -2.987000000     1.468000000    -3.612000000
H    -3.578000000     1.690000000    -2.893000000
H    -3.088000000     0.522000000    -3.722000000
O    -3.880000000    -4.715000000     5.621000000
H    -3.646000000    -3.872000000     5.233000000
H    -3.836000000    -4.564000000     6.566000000
O    -5.233000000    -3.970000000    -2.130000000
H    -4.439000000    -4.341000000    -1.745000000
H    -5.594000000    -3.412000000    -1.441000000
O    -5.153000000     0.493000000    -0.236000000
H    -4.632000000     1.260000000    -0.473000000
H    -4.534000000    -0.092000000     0.201000000
O    -6.419000000     1.470000000    -2.901000000
H    -6.762000000     1.265000000    -3.771000000
H    -6.569000000     0.674000000    -2.391000000
O     1.368000000    -1.770000000    -4.988000000
H     2.224000000    -1.640000000    -4.581000000
H     1.567000000    -2.012000000    -5.892000000
O     0.909000000     4.286000000    -4.711000000
H     0.243000000     4.849000000    -5.106000000
H     0.485000000     3.431000000    -4.635000000
O    -0.065000000     1.623000000    -4.777000000
H    -0.810000000     1.035000000    -4.903000000
H     0.572000000     1.101000000    -4.289000000
O    -3.614000000    -1.342000000    -2.948000000
H    -3.195000000    -1.882000000    -2.277000000
H    -4.531000000    -1.295000000    -2.680000000
O     7.914000000     1.449000000    -0.740000000
H     7.298000000     0.882000000    -1.203000000
H     7.764000000     2.319000000    -1.110000000
O    -6.451000000    -0.276000000     3.636000000
H    -6.110000000     0.608000000     3.772000000
H    -6.920000000    -0.479000000     4.446000000
O    -2.393000000    -6.466000000     3.947000000
H    -2.992000000    -5.886000000     4.417000000
H    -2.883000000    -7.281000000     3.840000000
O     4.368000000     2.656000000    -5.177000000
H     3.973000000     1.929000000    -5.657000000
H     4.193000000     3.425000000    -5.721000000
O     1.612000000     2.476000000    -6.886000000
H     1.023000000     2.117000000    -6.222000000
H     1.509000000     3.425000000    -6.810000000
O    -1.617000000     3.669000000    -2.832000000
H    -1.518000000     4.249000000    -3.587000000
H    -1.918000000     2.840000000    -3.204000000
O    -3.408000000     2.709000000    -0.900000000
H    -2.618000000     3.054000000    -1.316000000
H    -4.080000000     3.367000000    -1.080000000
O     0.544000000    -3.409000000     5.067000000
H     0.324000000    -2.481000000     5.159000000
H     1.478000000    -3.414000000     4.857000000
O    -0.282000000     4.105000000     2.881000000
H    -0.867000000     3.540000000     2.376000000
H     0.385000000     4.382000000     2.252000000
O     6.743000000    -0.280000000    -3.641000000
H     6.128000000    -0.360000000    -2.912000000
H     6.226000000    -0.497000000    -4.416000000
O     3.970000000     4.098000000    -0.608000000
H     4.272000000     3.307000000    -0.161000000
H     4.540000000     4.792000000    -0.279000000
O     1.767000000    -3.798000000     1.003000000
H     0.939000000    -3.946000000     1.460000000
H     1.543000000    -3.204000000     0.287000000
O     5.795000000     2.979000000    -2.752000000
H     5.446000000     2.555000000    -3.537000000
H     5.272000000     2.622000000    -2.035000000
O     5.275000000    -0.138000000    -1.482000000
H     5.239000000     0.268000000    -0.616000000
H     4.505000000    -0.705000000    -1.512000000
O     0.689000000    -2.446000000    -1.203000000
H    -0.028000000    -1.916000000    -0.855000000
H     0.387000000    -2.717000000    -2.070000000
O     4.256000000    -1.367000000     3.154000000
H     4.119000000    -1.700000000     4.041000000
H     5.140000000    -1.653000000     2.924000000
O    -7.046000000    -1.339000000    -2.175000000
H    -6.592000000    -1.319000000    -1.333000000
H    -7.685000000    -2.046000000    -2.086000000
O     5.257000000     1.514000000     0.729000000
H     6.015000000     2.070000000     0.910000000
H     4.896000000     1.312000000     1.592000000
O    -1.903000000     2.368000000     1.562000000
H    -2.278000000     2.361000000     0.682000000
H    -1.452000000     1.527000000     1.637000000
O    -2.258000000    -3.123000000    -1.517000000
H    -1.845000000    -3.039000000    -2.377000000
H    -1.899000000    -3.935000000    -1.158000000
O    -5.526000000    -2.671000000     0.158000000
H    -5.291000000    -3.474000000     0.622000000
H    -4.966000000    -1.998000000     0.545000000
O    -0.639000000    -3.982000000     2.204000000
H    -1.162000000    -3.183000000     2.152000000
H    -0.932000000    -4.408000000     3.010000000
O    -7.533000000    -0.405000000     0.907000000
H    -7.295000000    -0.440000000     1.833000000
H    -6.701000000    -0.287000000     0.450000000
O    -0.702000000    -3.080000000    -3.801000000
H    -0.301000000    -3.809000000    -4.274000000
H    -0.542000000    -2.317000000    -4.355000000
O    -2.696000000    -1.644000000     4.937000000
H    -2.627000000    -1.838000000     4.002000000
H    -1.808000000    -1.397000000     5.196000000
O    -5.009000000    -3.126000000     3.373000000
H    -4.188000000    -2.952000000     2.912000000
H    -5.253000000    -2.283000000     3.755000000
O    -3.629000000     1.030000000     3.995000000
H    -3.860000000     0.853000000     3.083000000
H    -3.375000000     0.177000000     4.347000000
O     3.635000000     1.338000000     3.091000000
H     3.345000000     1.520000000     3.985000000
H     3.783000000     0.392000000     3.075000000
O    -4.760000000     3.185000000     2.178000000
H    -3.824000000     3.227000000     2.378000000
H    -4.796000000     2.916000000     1.260000000
O     0.346000000    -0.854000000     4.711000000
H     0.056000000     0.011000000     4.423000000
H     1.147000000    -0.684000000     5.207000000
O     1.431000000     5.009000000     0.859000000
H     1.995000000     4.873000000     0.098000000
H     1.857000000     5.712000000     1.350000000
O     3.837000000    -4.600000000     2.628000000
H     4.427000000    -3.848000000     2.574000000
H     3.038000000    -4.309000000     2.188000000
O     3.916000000    -3.242000000    -4.908000000
H     3.405000000    -4.031000000    -5.089000000
H     3.600000000    -2.943000000    -4.055000000
O    -5.939000000    -5.419000000     1.113000000
H    -6.035000000    -4.975000000     1.956000000
H    -6.837000000    -5.606000000     0.838000000
