144
-2833.38605
O    -0.559000000     3.018000000    -1.508000000
H    -0.457000000     2.260000000    -0.932000000
H    -1.496000000     3.213000000    -1.484000000
O    -0.642000000     0.148000000    -4.391000000
H     0.119000000    -0.185000000    -3.915000000
H    -1.052000000    -0.633000000    -4.762000000
O     1.875000000    -0.965000000    -6.725000000
H     1.811000000    -0.752000000    -7.656000000
H     2.714000000    -0.595000000    -6.451000000
O     3.367000000     2.052000000    -5.838000000
H     2.470000000     1.842000000    -5.578000000
H     3.793000000     1.200000000    -5.936000000
O     4.097000000     2.509000000     1.576000000
H     5.002000000     2.569000000     1.883000000
H     4.167000000     2.521000000     0.621000000
O     2.165000000     4.344000000     1.595000000
H     2.829000000     4.941000000     1.253000000
H     2.586000000     3.484000000     1.582000000
O     0.175000000     6.206000000    -1.060000000
H     0.615000000     5.356000000    -1.078000000
H    -0.597000000     6.064000000    -0.512000000
O    -0.529000000     1.184000000     7.479000000
H    -0.809000000     1.491000000     6.617000000
H    -0.118000000     1.948000000     7.884000000
O    -5.600000000     0.988000000    -3.639000000
H    -4.772000000     0.895000000    -3.167000000
H    -6.206000000     0.410000000    -3.176000000
O    -4.582000000    -1.146000000     4.918000000
H    -4.133000000    -0.624000000     4.253000000
H    -3.939000000    -1.247000000     5.620000000
O     2.182000000     0.883000000     5.085000000
H     2.392000000     0.511000000     4.229000000
H     1.981000000     0.124000000     5.633000000
O    -5.959000000    -1.427000000     1.453000000
H    -5.610000000    -2.105000000     0.874000000
H    -5.192000000    -1.089000000     1.915000000
O    -2.439000000    -1.169000000     6.665000000
H    -1.705000000    -1.074000000     6.058000000
H    -2.109000000    -0.826000000     7.496000000
O    -3.483000000    -2.681000000    -2.615000000
H    -3.546000000    -3.264000000    -3.372000000
H    -2.667000000    -2.935000000    -2.184000000
O    -6.972000000    -0.096000000    -1.266000000
H    -6.529000000    -0.264000000    -0.435000000
H    -6.751000000    -0.850000000    -1.812000000
O     5.414000000    -1.905000000    -4.177000000
H     6.065000000    -2.052000000    -3.491000000
H     5.062000000    -2.776000000    -4.363000000
O    -3.610000000     2.395000000     6.668000000
H    -2.869000000     2.588000000     6.093000000
H    -4.293000000     2.075000000     6.078000000
O    -2.287000000    -1.884000000    -5.222000000
H    -1.872000000    -2.599000000    -4.738000000
H    -2.692000000    -2.310000000    -5.978000000
O     5.082000000     3.696000000    -4.332000000
H     4.910000000     4.611000000    -4.555000000
H     4.483000000     3.197000000    -4.888000000
O     3.167000000    -2.772000000     0.336000000
H     3.887000000    -2.303000000     0.757000000
H     2.646000000    -3.112000000     1.064000000
O     5.887000000     0.982000000    -1.052000000
H     6.671000000     1.507000000    -1.211000000
H     5.160000000     1.561000000    -1.283000000
O     4.316000000    -4.109000000    -4.600000000
H     4.454000000    -4.718000000    -5.326000000
H     4.146000000    -4.672000000    -3.845000000
O    -3.369000000    -4.016000000     4.930000000
H    -4.274000000    -3.906000000     5.221000000
H    -3.299000000    -3.464000000     4.152000000
O    -2.523000000     3.361000000     1.883000000
H    -3.478000000     3.370000000     1.813000000
H    -2.316000000     2.494000000     2.230000000
O     3.763000000     5.423000000    -1.746000000
H     4.226000000     5.940000000    -2.405000000
H     3.148000000     4.889000000    -2.248000000
O    -1.040000000    -4.766000000     1.454000000
H    -0.992000000    -4.674000000     0.502000000
H    -1.963000000    -4.621000000     1.663000000
O     6.620000000     0.897000000    -4.124000000
H     5.975000000     0.190000000    -4.135000000
H     6.100000000     1.697000000    -4.202000000
O     1.611000000    -3.198000000    -4.965000000
H     2.504000000    -3.524000000    -5.071000000
H     1.600000000    -2.368000000    -5.441000000
O    -5.196000000     3.327000000     1.560000000
H    -5.159000000     2.534000000     1.025000000
H    -5.353000000     4.032000000     0.932000000
O    -3.399000000     0.227000000    -2.634000000
H    -3.434000000    -0.714000000    -2.802000000
H    -2.635000000     0.530000000    -3.125000000
O    -2.000000000     5.967000000     0.774000000
H    -2.209000000     5.051000000     0.954000000
H    -2.653000000     6.240000000     0.129000000
O     2.493000000    -0.370000000     2.664000000
H     1.831000000     0.064000000     2.125000000
H     3.260000000    -0.437000000     2.096000000
O     1.694000000     3.960000000    -2.812000000
H     1.387000000     3.991000000    -3.718000000
H     0.936000000     3.652000000    -2.314000000
O     4.673000000    -0.371000000    -6.179000000
H     4.980000000    -0.916000000    -6.904000000
H     4.691000000    -0.952000000    -5.419000000
O     7.649000000    -1.733000000    -2.289000000
H     6.866000000    -1.324000000    -1.918000000
H     8.378000000    -1.309000000    -1.836000000
O    -1.545000000    -4.121000000    -1.482000000
H    -2.059000000    -4.872000000    -1.776000000
H    -0.657000000    -4.464000000    -1.376000000
O     3.993000000     2.787000000    -1.220000000
H     3.295000000     2.732000000    -1.872000000
H     4.367000000     3.659000000    -1.343000000
O    -4.440000000     1.229000000    -0.095000000
H    -3.996000000     0.478000000     0.299000000
H    -4.129000000     1.243000000    -1.000000000
O     1.045000000    -4.588000000    -1.613000000
H     1.580000000    -3.904000000    -1.210000000
H     1.675000000    -5.151000000    -2.062000000
O    -3.172000000    -3.327000000     2.019000000
H    -3.933000000    -3.122000000     1.476000000
H    -2.773000000    -2.476000000     2.203000000
O    -0.463000000    -1.231000000     4.688000000
H    -0.407000000    -1.992000000     4.110000000
H    -0.532000000    -0.483000000     4.095000000
O    -5.052000000    -3.139000000    -0.265000000
H    -4.445000000    -2.996000000    -0.992000000
H    -5.593000000    -3.878000000    -0.547000000
O    -0.890000000    -3.963000000    -4.535000000
H    -0.822000000    -4.787000000    -4.053000000
H     0.015000000    -3.734000000    -4.746000000
O    -1.284000000     1.906000000     5.055000000
H    -0.889000000     2.607000000     4.536000000
H    -1.813000000     1.413000000     4.429000000
O    -4.720000000     1.800000000     3.712000000
H    -5.200000000     2.155000000     2.965000000
H    -3.870000000     1.545000000     3.352000000
O     5.099000000    -0.810000000     1.261000000
H     5.316000000    -0.174000000     0.580000000
H     5.835000000    -0.767000000     1.871000000
O     1.914000000     3.609000000     5.263000000
H     1.897000000     2.653000000     5.209000000
H     1.103000000     3.887000000     4.836000000
O     0.003000000     3.810000000     3.207000000
H     0.831000000     4.015000000     2.774000000
H    -0.664000000     3.976000000     2.540000000
