144
-2798.77772
O     5.039000000    -0.742000000     2.284000000
H     4.392000000    -0.134000000     1.927000000
H     5.488000000    -0.242000000     2.965000000
O    -1.274000000    -0.850000000    -2.563000000
H    -1.028000000    -0.333000000    -1.796000000
H    -1.952000000    -1.446000000    -2.244000000
O    -0.529000000    -4.278000000    -1.574000000
H     0.160000000    -3.944000000    -1.000000000
H    -1.292000000    -3.736000000    -1.374000000
O     2.003000000    -0.721000000     3.654000000
H     1.975000000    -1.672000000     3.767000000
H     2.836000000    -0.459000000     4.046000000
O     2.122000000    -2.488000000    -4.724000000
H     2.601000000    -2.206000000    -3.945000000
H     1.503000000    -3.143000000    -4.401000000
O    -0.693000000    -0.041000000     4.764000000
H     0.201000000    -0.173000000     4.448000000
H    -1.210000000    -0.700000000     4.301000000
O    -5.335000000    -2.782000000     2.327000000
H    -5.137000000    -3.564000000     1.811000000
H    -4.613000000    -2.183000000     2.140000000
O    -7.553000000    -3.004000000    -0.122000000
H    -8.032000000    -3.833000000    -0.096000000
H    -6.724000000    -3.193000000     0.319000000
O    -3.023000000     1.563000000    -2.896000000
H    -3.178000000     1.598000000    -3.840000000
H    -3.701000000     0.976000000    -2.564000000
O     3.271000000     3.524000000    -3.780000000
H     3.336000000     3.943000000    -4.638000000
H     2.892000000     2.664000000    -3.961000000
O    -6.495000000     0.689000000     4.482000000
H    -6.875000000    -0.188000000     4.428000000
H    -5.666000000     0.621000000     4.008000000
O    -5.974000000     4.053000000     1.676000000
H    -5.296000000     3.525000000     1.256000000
H    -5.491000000     4.718000000     2.167000000
O     0.826000000     1.896000000     2.289000000
H     0.706000000     1.031000000     1.896000000
H     1.352000000     1.732000000     3.071000000
O     1.609000000     2.523000000    -6.164000000
H     0.890000000     2.792000000    -6.737000000
H     1.679000000     1.578000000    -6.297000000
O     2.188000000    -6.320000000     2.614000000
H     2.622000000    -5.675000000     2.055000000
H     2.782000000    -7.071000000     2.618000000
O    -3.325000000     3.900000000    -0.625000000
H    -2.838000000     3.634000000     0.155000000
H    -2.921000000     3.407000000    -1.339000000
O     1.389000000    -4.023000000     0.630000000
H     1.985000000    -4.770000000     0.574000000
H     1.958000000    -3.256000000     0.571000000
O     1.386000000    -0.495000000    -6.650000000
H     1.703000000    -1.178000000    -6.059000000
H     0.451000000    -0.675000000    -6.743000000
O    -3.626000000     0.918000000     6.617000000
H    -4.440000000     0.918000000     7.120000000
H    -3.756000000     0.243000000     5.951000000
O     5.219000000     0.018000000    -2.086000000
H     5.387000000     0.954000000    -1.981000000
H     6.077000000    -0.393000000    -1.983000000
O    -2.250000000     4.965000000    -3.812000000
H    -1.495000000     4.585000000    -3.364000000
H    -2.659000000     5.531000000    -3.157000000
O     5.332000000     2.584000000    -2.091000000
H     4.851000000     3.088000000    -2.748000000
H     6.124000000     3.096000000    -1.929000000
O    -3.622000000     6.020000000     1.473000000
H    -4.302000000     6.484000000     0.984000000
H    -3.276000000     5.380000000     0.852000000
O     5.159000000     5.657000000    -2.472000000
H     5.845000000     5.167000000    -2.018000000
H     4.393000000     5.578000000    -1.904000000
O    -4.838000000     1.245000000     0.768000000
H    -5.647000000     0.852000000     0.441000000
H    -4.334000000     0.507000000     1.111000000
O     1.863000000     4.043000000     0.478000000
H     2.213000000     4.694000000     1.086000000
H     1.794000000     3.242000000     0.997000000
O    -2.886000000    -2.771000000    -0.975000000
H    -3.525000000    -3.436000000    -1.233000000
H    -3.322000000    -2.277000000    -0.280000000
O    -3.888000000    -0.927000000     4.670000000
H    -3.473000000    -0.963000000     3.809000000
H    -3.631000000    -1.746000000     5.095000000
O     0.348000000    -3.702000000     7.091000000
H    -0.453000000    -3.577000000     6.583000000
H     0.374000000    -4.642000000     7.271000000
O    -7.211000000    -0.036000000    -0.233000000
H    -8.004000000     0.306000000    -0.646000000
H    -7.430000000    -0.939000000    -0.005000000
O     5.693000000    -0.020000000    -4.767000000
H     5.188000000     0.316000000    -4.026000000
H     6.387000000    -0.543000000    -4.366000000
O    -5.152000000    -4.988000000     0.757000000
H    -4.308000000    -5.139000000     1.183000000
H    -5.020000000    -5.274000000    -0.146000000
O     0.187000000     6.516000000     0.146000000
H     0.326000000     7.037000000     0.937000000
H     0.091000000     5.618000000     0.463000000
O    -1.938000000    -3.313000000     5.385000000
H    -2.014000000    -2.906000000     4.522000000
H    -1.714000000    -4.225000000     5.201000000
O    -3.450000000     3.129000000    -5.288000000
H    -2.775000000     2.837000000    -5.901000000
H    -3.013000000     3.785000000    -4.745000000
O    -7.725000000    -1.701000000     3.643000000
H    -6.835000000    -2.016000000     3.485000000
H    -7.958000000    -2.061000000     4.499000000
O     2.391000000     5.308000000    -1.888000000
H     2.314000000     4.503000000    -2.399000000
H     2.038000000     5.080000000    -1.028000000
O     4.046000000    -2.348000000    -2.754000000
H     4.328000000    -1.481000000    -2.464000000
H     4.434000000    -2.951000000    -2.120000000
O     4.066000000     1.741000000     1.349000000
H     3.623000000     1.993000000     0.539000000
H     4.558000000     2.521000000     1.606000000
O    -1.508000000     2.673000000     3.954000000
H    -1.430000000     1.751000000     4.199000000
H    -0.755000000     2.834000000     3.385000000
O     4.039000000     0.125000000    -7.222000000
H     3.180000000     0.087000000    -6.801000000
H     4.651000000    -0.153000000    -6.541000000
O    -2.786000000    -5.974000000     1.984000000
H    -2.005000000    -6.066000000     1.438000000
H    -2.445000000    -5.823000000     2.866000000
O    -5.540000000     0.384000000    -2.324000000
H    -5.932000000    -0.280000000    -2.891000000
H    -6.045000000     0.334000000    -1.512000000
O    -2.336000000    -1.497000000     7.574000000
H    -2.152000000    -2.086000000     6.842000000
H    -2.507000000    -0.650000000     7.163000000
O     4.115000000    -3.082000000     0.766000000
H     4.500000000    -2.350000000     1.248000000
H     4.661000000    -3.168000000    -0.015000000
O    -1.330000000     4.004000000     1.164000000
H    -0.654000000     3.327000000     1.153000000
H    -1.673000000     3.986000000     2.058000000
O    -0.619000000    -4.189000000     2.945000000
H    -0.765000000    -3.257000000     2.781000000
H     0.070000000    -4.436000000     2.330000000
O    -0.876000000    -1.448000000    -5.467000000
H    -0.857000000    -1.242000000    -4.533000000
H    -1.570000000    -2.102000000    -5.554000000
