144
-2787.43915
O     3.343000000     2.024000000     2.353000000
H     2.557000000     1.673000000     2.770000000
H     3.028000000     2.759000000     1.827000000
O    -3.298000000    -3.792000000    -2.597000000
H    -3.440000000    -3.720000000    -1.653000000
H    -4.177000000    -3.773000000    -2.974000000
O     0.005000000     1.812000000    -5.198000000
H    -0.208000000     0.933000000    -5.514000000
H    -0.784000000     2.098000000    -4.738000000
O     2.483000000     2.274000000    -4.238000000
H     1.592000000     1.934000000    -4.324000000
H     2.930000000     1.979000000    -5.031000000
O    -2.961000000    -1.385000000     3.336000000
H    -2.254000000    -0.746000000     3.430000000
H    -2.531000000    -2.235000000     3.429000000
O    -3.107000000    -3.653000000     0.347000000
H    -2.466000000    -3.503000000     1.042000000
H    -3.541000000    -2.807000000     0.236000000
O     1.913000000    -4.537000000    -4.810000000
H     2.226000000    -3.758000000    -5.270000000
H     1.710000000    -4.229000000    -3.927000000
O     0.512000000     5.615000000     6.038000000
H     0.354000000     5.024000000     5.302000000
H     0.924000000     5.063000000     6.703000000
O     4.663000000    -1.318000000    -1.099000000
H     4.628000000    -0.963000000    -0.211000000
H     4.448000000    -0.576000000    -1.663000000
O     5.425000000     1.209000000     5.393000000
H     6.269000000     0.852000000     5.115000000
H     4.939000000     0.452000000     5.718000000
O    -4.610000000    -1.466000000    -0.223000000
H    -5.460000000    -1.887000000    -0.095000000
H    -4.793000000    -0.529000000    -0.146000000
O    -5.883000000    -0.491000000    -4.362000000
H    -5.006000000    -0.871000000    -4.317000000
H    -5.839000000     0.280000000    -3.796000000
O     0.787000000     2.942000000     6.972000000
H     0.036000000     2.351000000     6.912000000
H     1.354000000     2.684000000     6.246000000
O    -5.599000000     1.902000000    -2.450000000
H    -5.385000000     1.675000000    -1.545000000
H    -5.153000000     2.735000000    -2.600000000
O     0.995000000     3.339000000    -7.310000000
H     0.832000000     2.924000000    -6.463000000
H     0.123000000     3.500000000    -7.670000000
O     0.601000000     6.342000000     3.366000000
H     0.142000000     6.616000000     4.159000000
H     0.369000000     5.419000000     3.262000000
O    -2.719000000     2.661000000     3.080000000
H    -2.599000000     1.845000000     3.566000000
H    -3.089000000     2.388000000     2.241000000
O    -1.398000000     1.216000000     6.443000000
H    -2.311000000     1.399000000     6.221000000
H    -1.100000000     0.617000000     5.759000000
O    -0.070000000     3.727000000     3.925000000
H     0.325000000     2.941000000     4.302000000
H    -0.687000000     3.395000000     3.273000000
O    -0.670000000    -0.508000000    -6.189000000
H    -1.346000000    -0.296000000    -6.833000000
H    -0.493000000    -1.439000000    -6.324000000
O     2.880000000     2.192000000     5.405000000
H     3.820000000     2.026000000     5.334000000
H     2.513000000     1.840000000     4.594000000
O    -2.717000000     5.174000000     3.756000000
H    -2.364000000     5.281000000     4.639000000
H    -2.780000000     4.226000000     3.637000000
O     3.861000000     3.712000000    -1.188000000
H     4.474000000     3.435000000    -1.869000000
H     4.360000000     3.644000000    -0.374000000
O     5.363000000     0.106000000     1.690000000
H     6.138000000     0.666000000     1.655000000
H     4.756000000     0.573000000     2.265000000
O    -2.244000000     2.448000000    -0.200000000
H    -1.489000000     3.036000000    -0.172000000
H    -1.864000000     1.570000000    -0.165000000
O     3.272000000    -1.961000000    -5.719000000
H     3.627000000    -2.160000000    -4.853000000
H     3.553000000    -2.694000000    -6.267000000
O    -3.375000000    -1.467000000    -4.623000000
H    -2.646000000    -1.275000000    -5.212000000
H    -3.040000000    -2.149000000    -4.041000000
O    -0.983000000    -1.917000000     5.739000000
H    -0.051000000    -1.824000000     5.936000000
H    -1.173000000    -2.839000000     5.913000000
O     1.602000000    -4.273000000    -2.076000000
H     1.521000000    -3.760000000    -1.272000000
H     2.256000000    -4.940000000    -1.870000000
O     4.623000000    -4.425000000     2.819000000
H     4.211000000    -3.733000000     2.300000000
H     5.168000000    -3.957000000     3.452000000
O    -5.895000000    -1.332000000     2.760000000
H    -4.948000000    -1.353000000     2.897000000
H    -6.038000000    -1.878000000     1.988000000
O    -1.087000000    -5.296000000    -2.859000000
H    -1.915000000    -4.819000000    -2.811000000
H    -0.459000000    -4.653000000    -3.186000000
O    -4.750000000     1.186000000     0.095000000
H    -3.868000000     1.483000000    -0.130000000
H    -4.989000000     1.704000000     0.864000000
O     5.502000000    -2.655000000    -3.165000000
H     5.248000000    -2.292000000    -2.316000000
H     5.822000000    -1.902000000    -3.661000000
O     3.525000000    -2.217000000     1.599000000
H     2.907000000    -2.349000000     0.880000000
H     3.853000000    -1.327000000     1.471000000
O    -3.915000000     4.078000000    -2.427000000
H    -3.559000000     4.924000000    -2.698000000
H    -3.351000000     3.800000000    -1.706000000
O     4.230000000     0.824000000    -2.528000000
H     4.966000000     1.435000000    -2.484000000
H     3.515000000     1.338000000    -2.904000000
O     1.942000000     4.137000000     0.781000000
H     2.412000000     3.964000000    -0.035000000
H     1.052000000     4.353000000     0.504000000
O     0.980000000    -3.245000000     0.367000000
H     0.226000000    -2.703000000     0.131000000
H     0.608000000    -4.110000000     0.539000000
O    -4.137000000    -1.245000000     6.050000000
H    -3.961000000    -1.107000000     5.119000000
H    -3.271000000    -1.329000000     6.448000000
O    -1.427000000    -3.591000000     3.031000000
H    -0.498000000    -3.702000000     2.829000000
H    -1.607000000    -4.248000000     3.704000000
O     3.013000000     4.796000000    -4.326000000
H     3.570000000     4.842000000    -5.104000000
H     2.740000000     3.880000000    -4.280000000
O     1.892000000    -0.054000000    -6.988000000
H     0.987000000    -0.163000000    -6.696000000
H     2.413000000    -0.515000000    -6.330000000
O    -1.713000000    -0.929000000     8.421000000
H    -2.282000000    -0.393000000     8.974000000
H    -1.376000000    -0.321000000     7.763000000
O     1.832000000    -1.104000000     5.261000000
H     1.388000000    -0.540000000     4.628000000
H     2.451000000    -0.524000000     5.706000000
O    -3.484000000     1.739000000    -6.051000000
H    -3.478000000     1.314000000    -6.909000000
H    -3.355000000     1.024000000    -5.428000000
O    -0.542000000    -2.990000000    -6.933000000
H    -0.952000000    -3.853000000    -6.884000000
H     0.270000000    -3.138000000    -7.418000000
O     1.648000000    -3.390000000     3.677000000
H     1.869000000    -2.935000000     2.864000000
H     1.873000000    -2.768000000     4.369000000
