144
-2813.60633
O    -0.302000000     4.926000000     1.937000000
H    -0.575000000     4.023000000     2.102000000
H    -0.089000000     4.945000000     1.004000000
O    -1.645000000    -0.616000000    -5.408000000
H    -2.450000000    -0.604000000    -4.891000000
H    -1.917000000    -0.936000000    -6.268000000
O     5.062000000     1.657000000    -3.290000000
H     4.381000000     1.187000000    -3.771000000
H     5.866000000     1.478000000    -3.779000000
O     1.295000000     6.418000000     4.250000000
H     1.556000000     6.340000000     5.168000000
H     0.588000000     5.781000000     4.148000000
O    -3.588000000    -1.444000000     2.332000000
H    -2.643000000    -1.418000000     2.479000000
H    -3.923000000    -0.670000000     2.784000000
O    -2.204000000     7.065000000     2.727000000
H    -1.468000000     6.488000000     2.524000000
H    -2.044000000     7.351000000     3.626000000
O    -4.766000000    -0.226000000    -1.369000000
H    -4.457000000     0.411000000    -0.725000000
H    -5.694000000    -0.021000000    -1.483000000
O     3.414000000    -1.156000000    -3.786000000
H     3.100000000    -0.611000000    -3.065000000
H     3.264000000    -2.054000000    -3.491000000
O    -0.866000000    -4.448000000     1.199000000
H    -0.180000000    -4.144000000     1.793000000
H    -0.751000000    -5.397000000     1.166000000
O    -0.796000000     5.259000000     6.730000000
H    -0.333000000     4.665000000     6.139000000
H    -0.133000000     5.896000000     6.998000000
O     4.772000000     1.559000000     1.475000000
H     4.514000000     1.663000000     0.559000000
H     5.357000000     0.802000000     1.474000000
O     0.831000000    -2.126000000     7.540000000
H     0.160000000    -1.671000000     8.048000000
H     1.206000000    -1.449000000     6.977000000
O    -5.810000000     3.681000000    -1.880000000
H    -6.511000000     3.111000000    -1.564000000
H    -5.011000000     3.168000000    -1.760000000
O    -2.288000000     2.435000000     5.600000000
H    -1.760000000     2.453000000     6.398000000
H    -1.654000000     2.536000000     4.890000000
O     5.088000000    -0.734000000    -6.041000000
H     4.544000000    -0.871000000    -6.817000000
H     4.489000000    -0.853000000    -5.304000000
O     3.972000000    -4.055000000    -4.054000000
H     4.805000000    -3.859000000    -3.625000000
H     4.211000000    -4.605000000    -4.801000000
O     0.162000000     1.471000000    -5.372000000
H    -0.326000000     2.277000000    -5.205000000
H    -0.509000000     0.789000000    -5.410000000
O    -3.369000000     5.331000000     0.646000000
H    -3.742000000     4.689000000     1.250000000
H    -2.944000000     5.975000000     1.213000000
O     4.487000000    -5.098000000     1.244000000
H     3.540000000    -5.160000000     1.118000000
H     4.588000000    -4.756000000     2.132000000
O    -3.555000000    -0.726000000     5.506000000
H    -2.779000000    -1.127000000     5.115000000
H    -3.780000000    -0.010000000     4.912000000
O     2.779000000     2.009000000     6.677000000
H     2.949000000     1.792000000     7.594000000
H     3.644000000     2.192000000     6.310000000
O    -4.473000000     4.527000000     5.253000000
H    -4.106000000     3.678000000     5.500000000
H    -4.189000000     5.122000000     5.948000000
O    -4.500000000     0.960000000     3.340000000
H    -5.329000000     1.087000000     2.879000000
H    -4.158000000     1.845000000     3.465000000
O     3.013000000    -2.168000000    -7.120000000
H     3.520000000    -2.965000000    -6.965000000
H     2.313000000    -2.199000000    -6.467000000
O    -3.420000000     3.310000000     2.737000000
H    -2.510000000     3.013000000     2.710000000
H    -3.482000000     3.817000000     3.547000000
O    -1.142000000     3.860000000    -5.288000000
H    -0.359000000     4.335000000    -5.009000000
H    -1.744000000     4.543000000    -5.585000000
O     0.341000000    -4.746000000    -6.027000000
H     1.027000000    -4.679000000    -6.692000000
H     0.233000000    -3.852000000    -5.704000000
O     0.747000000     3.126000000     5.259000000
H     1.632000000     2.846000000     5.495000000
H     0.466000000     2.497000000     4.595000000
O    -1.543000000    -4.239000000    -1.821000000
H    -1.184000000    -4.468000000    -0.964000000
H    -1.837000000    -3.333000000    -1.724000000
O     2.820000000    -2.062000000     3.987000000
H     3.652000000    -2.127000000     3.519000000
H     2.922000000    -1.295000000     4.551000000
O     4.398000000     2.677000000     3.952000000
H     4.984000000     2.129000000     4.475000000
H     4.189000000     2.140000000     3.187000000
O    -3.056000000    -3.448000000    -4.357000000
H    -3.871000000    -2.971000000    -4.202000000
H    -2.686000000    -3.577000000    -3.484000000
O     2.628000000     1.658000000    -4.677000000
H     1.716000000     1.391000000    -4.792000000
H     2.698000000     2.483000000    -5.158000000
O    -3.135000000    -2.286000000    -1.376000000
H    -3.938000000    -1.806000000    -1.577000000
H    -2.522000000    -1.615000000    -1.077000000
O    -1.146000000    -1.131000000     4.171000000
H    -0.524000000    -1.753000000     3.793000000
H    -0.685000000    -0.292000000     4.155000000
O    -0.485000000     2.339000000     7.629000000
H    -0.671000000     3.102000000     8.175000000
H     0.403000000     2.486000000     7.305000000
O     2.170000000    -5.960000000    -2.859000000
H     2.149000000    -6.255000000    -3.769000000
H     2.504000000    -5.064000000    -2.906000000
O     2.124000000    -5.772000000     0.039000000
H     1.437000000    -6.430000000     0.145000000
H     2.064000000    -5.509000000    -0.879000000
O    -4.353000000    -5.024000000    -1.800000000
H    -3.437000000    -4.754000000    -1.736000000
H    -4.847000000    -4.285000000    -1.446000000
O    -3.844000000     2.692000000    -4.058000000
H    -3.139000000     2.917000000    -3.451000000
H    -3.818000000     3.382000000    -4.722000000
O     5.860000000    -0.806000000    -0.735000000
H     5.018000000    -0.400000000    -0.939000000
H     6.509000000    -0.224000000    -1.131000000
O     3.081000000     0.541000000    -0.819000000
H     2.331000000     0.273000000    -0.287000000
H     2.803000000     1.358000000    -1.232000000
O     0.959000000    -2.080000000    -5.358000000
H     1.406000000    -1.814000000    -4.554000000
H     0.251000000    -1.445000000    -5.461000000
O     1.695000000    -0.269000000     5.746000000
H     1.028000000    -0.179000000     5.065000000
H     1.871000000     0.628000000     6.029000000
O    -2.993000000     3.216000000    -1.338000000
H    -2.847000000     3.994000000    -0.801000000
H    -3.172000000     2.519000000    -0.707000000
O     0.599000000    -3.247000000     3.354000000
H     0.801000000    -4.068000000     3.802000000
H     1.419000000    -2.754000000     3.374000000
O    -4.228000000     1.678000000     0.543000000
H    -5.140000000     1.581000000     0.817000000
H    -3.718000000     1.451000000     1.321000000
O     4.992000000    -2.556000000     2.545000000
H     5.842000000    -2.900000000     2.818000000
H     5.082000000    -2.414000000     1.603000000
