144
-2823.20581
O     4.529000000    -2.245000000     2.038000000
H     4.667000000    -1.342000000     2.321000000
H     4.683000000    -2.227000000     1.094000000
O    -3.671000000    -2.350000000     1.168000000
H    -2.761000000    -2.173000000     1.409000000
H    -4.078000000    -1.486000000     1.118000000
O     4.764000000     2.473000000     4.746000000
H     3.992000000     2.248000000     5.266000000
H     5.442000000     1.872000000     5.052000000
O     4.974000000    -5.075000000     2.193000000
H     5.796000000    -5.225000000     1.727000000
H     4.759000000    -4.161000000     2.011000000
O     1.406000000     1.441000000    -4.781000000
H     2.222000000     1.848000000    -4.492000000
H     0.977000000     2.113000000    -5.310000000
O     1.878000000     7.217000000     3.959000000
H     1.621000000     6.833000000     3.121000000
H     1.049000000     7.411000000     4.397000000
O     5.666000000     2.907000000    -1.376000000
H     4.969000000     2.422000000    -0.933000000
H     5.388000000     3.822000000    -1.328000000
O    -2.167000000     4.225000000    -3.506000000
H    -1.795000000     4.795000000    -2.832000000
H    -2.382000000     4.815000000    -4.228000000
O    -1.468000000     1.307000000    -4.083000000
H    -0.625000000     0.974000000    -3.777000000
H    -1.426000000     2.250000000    -3.923000000
O    -5.479000000     3.314000000    -3.138000000
H    -4.891000000     3.901000000    -2.663000000
H    -5.061000000     2.455000000    -3.078000000
O    -2.077000000    -5.820000000    -2.429000000
H    -2.652000000    -5.796000000    -1.664000000
H    -1.268000000    -6.217000000    -2.109000000
O     3.972000000    -0.670000000    -3.617000000
H     4.484000000     0.032000000    -4.019000000
H     3.334000000    -0.216000000    -3.067000000
O    -2.766000000     0.885000000     2.840000000
H    -3.246000000     0.320000000     3.447000000
H    -2.161000000     0.294000000     2.391000000
O    -1.318000000     3.029000000     6.333000000
H    -0.761000000     3.806000000     6.287000000
H    -0.906000000     2.404000000     5.735000000
O     6.755000000     0.344000000     0.314000000
H     5.858000000     0.572000000     0.069000000
H     6.749000000     0.344000000     1.271000000
O     1.626000000    -3.706000000    -3.188000000
H     2.060000000    -4.167000000    -2.470000000
H     0.777000000    -3.448000000    -2.828000000
O     2.564000000     2.415000000     6.346000000
H     2.720000000     3.231000000     6.822000000
H     2.628000000     1.732000000     7.013000000
O     2.088000000     3.139000000    -1.381000000
H     2.410000000     3.879000000    -0.866000000
H     1.732000000     3.538000000    -2.175000000
O     0.441000000     1.835000000     4.747000000
H     1.173000000     2.022000000     5.335000000
H     0.682000000     2.259000000     3.923000000
O     0.129000000     4.713000000     1.105000000
H    -0.699000000     4.806000000     1.576000000
H     0.489000000     3.882000000     1.416000000
O     2.406000000    -0.440000000     4.664000000
H     2.822000000     0.012000000     3.930000000
H     1.624000000     0.078000000     4.853000000
O     3.840000000     3.678000000     2.565000000
H     4.208000000     3.448000000     3.418000000
H     3.003000000     3.214000000     2.532000000
O     0.117000000    -3.641000000     3.953000000
H     1.047000000    -3.853000000     3.876000000
H    -0.264000000    -4.394000000     4.405000000
O    -0.621000000    -0.629000000     5.333000000
H    -1.025000000    -0.981000000     4.539000000
H    -0.310000000     0.240000000     5.078000000
O     0.384000000    -4.840000000    -0.559000000
H     1.271000000    -4.759000000    -0.210000000
H     0.014000000    -5.594000000    -0.100000000
O    -3.958000000     4.764000000    -1.244000000
H    -3.051000000     4.506000000    -1.408000000
H    -4.289000000     4.104000000    -0.634000000
O     3.892000000     4.984000000    -0.080000000
H     3.266000000     5.695000000    -0.218000000
H     3.704000000     4.669000000     0.804000000
O    -1.771000000    -0.144000000    -6.850000000
H    -1.680000000    -1.001000000    -6.432000000
H    -1.674000000     0.483000000    -6.134000000
O    -5.820000000    -3.976000000    -3.370000000
H    -5.618000000    -4.632000000    -4.037000000
H    -5.187000000    -3.275000000    -3.525000000
O     2.840000000    -4.321000000     0.171000000
H     3.306000000    -4.697000000     0.917000000
H     3.384000000    -3.583000000    -0.104000000
O     6.043000000     2.865000000     1.375000000
H     6.069000000     2.882000000     0.419000000
H     5.110000000     2.868000000     1.589000000
O     4.286000000    -2.380000000    -0.670000000
H     5.080000000    -2.710000000    -1.091000000
H     3.905000000    -1.782000000    -1.314000000
O    -1.027000000    -1.615000000     2.553000000
H    -0.608000000    -2.402000000     2.901000000
H    -0.471000000    -1.352000000     1.820000000
O    -2.231000000     5.084000000     2.507000000
H    -2.717000000     5.880000000     2.293000000
H    -2.817000000     4.593000000     3.083000000
O    -4.215000000    -5.036000000    -0.878000000
H    -4.713000000    -4.759000000    -1.647000000
H    -4.135000000    -4.244000000    -0.346000000
O    -4.243000000     0.567000000    -2.544000000
H    -4.693000000     0.020000000    -3.188000000
H    -3.366000000     0.691000000    -2.907000000
O    -1.037000000     5.371000000    -1.461000000
H    -0.911000000     4.945000000    -0.613000000
H    -0.156000000     5.439000000    -1.828000000
O    -4.705000000     0.331000000     0.227000000
H    -4.254000000     1.159000000     0.393000000
H    -4.587000000     0.178000000    -0.710000000
O     4.145000000     0.870000000    -0.034000000
H     3.609000000     0.874000000     0.759000000
H     3.560000000     0.541000000    -0.717000000
O    -5.199000000    -1.266000000    -4.337000000
H    -6.136000000    -1.457000000    -4.377000000
H    -4.964000000    -1.030000000    -5.234000000
O    -3.997000000     3.077000000     0.668000000
H    -4.758000000     3.037000000     1.248000000
H    -3.284000000     3.383000000     1.228000000
O    -3.366000000     3.027000000     4.266000000
H    -2.920000000     2.999000000     5.113000000
H    -3.015000000     2.278000000     3.785000000
O    -2.161000000    -5.369000000    -5.342000000
H    -3.001000000    -5.812000000    -5.464000000
H    -2.035000000    -5.354000000    -4.393000000
O     1.995000000     6.939000000    -0.046000000
H     1.302000000     6.575000000     0.505000000
H     1.548000000     7.578000000    -0.602000000
O     2.205000000    -1.971000000    -5.134000000
H     2.748000000    -1.369000000    -4.626000000
H     1.903000000    -2.618000000    -4.495000000
O     2.334000000     0.451000000    -2.075000000
H     2.262000000     1.400000000    -1.980000000
H     1.595000000     0.103000000    -1.576000000
O     2.859000000    -4.112000000     4.473000000
H     2.877000000    -3.158000000     4.543000000
H     3.752000000    -4.385000000     4.684000000
O     5.364000000     0.254000000     2.527000000
H     4.454000000     0.516000000     2.385000000
H     5.526000000     0.445000000     3.451000000
