144
-2825.26629
O     2.441000000     3.670000000     1.974000000
H     1.751000000     3.541000000     2.625000000
H     2.876000000     2.820000000     1.914000000
O     4.684000000     3.166000000    -0.341000000
H     3.898000000     3.662000000    -0.574000000
H     4.441000000     2.252000000    -0.485000000
O    -3.690000000     2.774000000     4.003000000
H    -4.406000000     2.293000000     3.587000000
H    -3.697000000     2.474000000     4.912000000
O     2.068000000    -2.724000000    -2.118000000
H     2.870000000    -2.770000000    -1.599000000
H     1.543000000    -3.465000000    -1.814000000
O    -3.696000000    -0.550000000    -7.333000000
H    -3.629000000    -0.092000000    -8.171000000
H    -3.754000000     0.150000000    -6.682000000
O     2.357000000    -0.350000000    -7.200000000
H     1.943000000    -0.511000000    -6.353000000
H     2.787000000     0.500000000    -7.099000000
O    -4.385000000     1.792000000    -5.885000000
H    -5.253000000     2.059000000    -5.583000000
H    -3.781000000     2.191000000    -5.259000000
O     4.016000000     4.938000000    -3.118000000
H     3.417000000     5.095000000    -3.848000000
H     3.443000000     4.767000000    -2.370000000
O    -2.142000000    -4.874000000    -3.787000000
H    -1.679000000    -5.643000000    -4.118000000
H    -2.234000000    -5.036000000    -2.848000000
O     0.061000000    -3.441000000     0.106000000
H    -0.252000000    -2.571000000    -0.142000000
H     0.083000000    -3.423000000     1.063000000
O     1.313000000    -0.656000000     8.480000000
H     0.828000000     0.167000000     8.548000000
H     1.823000000    -0.567000000     7.674000000
O     7.706000000    -0.235000000     4.207000000
H     7.351000000     0.272000000     3.477000000
H     7.587000000     0.329000000     4.971000000
O    -4.362000000    -0.377000000     5.500000000
H    -4.274000000     0.190000000     6.266000000
H    -3.474000000    -0.445000000     5.149000000
O    -2.680000000    -4.467000000     3.195000000
H    -3.156000000    -4.514000000     4.024000000
H    -1.779000000    -4.267000000     3.447000000
O    -1.150000000     3.514000000     2.968000000
H    -0.492000000     3.088000000     3.519000000
H    -1.988000000     3.238000000     3.339000000
O     0.005000000    -3.814000000     2.961000000
H     0.277000000    -3.145000000     3.589000000
H     0.818000000    -4.255000000     2.714000000
O     1.896000000     1.335000000    -4.847000000
H     2.836000000     1.474000000    -4.968000000
H     1.826000000     0.439000000    -4.518000000
O    -6.663000000    -0.572000000    -0.682000000
H    -6.381000000     0.100000000    -0.061000000
H    -6.558000000    -0.164000000    -1.541000000
O     5.814000000     0.613000000     1.970000000
H     5.553000000     0.329000000     1.093000000
H     4.998000000     0.900000000     2.381000000
O    -3.680000000    -4.926000000     0.547000000
H    -3.345000000    -4.505000000     1.338000000
H    -4.290000000    -4.289000000     0.177000000
O     5.264000000     4.136000000     2.487000000
H     5.568000000     3.702000000     1.690000000
H     4.337000000     3.903000000     2.548000000
O     6.752000000     2.745000000     4.521000000
H     6.667000000     3.611000000     4.922000000
H     6.299000000     2.825000000     3.682000000
O     2.133000000     4.835000000    -5.115000000
H     1.493000000     4.125000000    -5.065000000
H     2.475000000     4.788000000    -6.008000000
O     0.012000000    -4.254000000    -7.233000000
H     0.393000000    -3.621000000    -7.841000000
H    -0.265000000    -3.729000000    -6.482000000
O     1.005000000    -5.624000000    -3.369000000
H     1.215000000    -6.463000000    -2.961000000
H     0.512000000    -5.148000000    -2.700000000
O    -0.259000000     4.879000000    -0.638000000
H    -0.687000000     4.124000000    -0.234000000
H    -0.639000000     4.930000000    -1.515000000
O     6.302000000     0.388000000    -1.069000000
H     6.461000000     0.718000000    -1.954000000
H     7.053000000     0.696000000    -0.561000000
O     1.392000000    -1.356000000    -4.382000000
H     1.695000000    -1.854000000    -3.623000000
H     0.617000000    -1.828000000    -4.685000000
O     4.978000000     2.336000000    -4.230000000
H     5.501000000     3.030000000    -3.830000000
H     4.703000000     1.789000000    -3.495000000
O     1.002000000     2.673000000     4.646000000
H     1.324000000     1.855000000     4.268000000
H     0.999000000     2.516000000     5.590000000
O     2.367000000     4.415000000    -0.599000000
H     2.345000000     4.514000000     0.353000000
H     1.503000000     4.708000000    -0.890000000
O    -1.682000000    -0.411000000     4.889000000
H    -1.559000000     0.150000000     5.655000000
H    -0.838000000    -0.848000000     4.773000000
O    -0.595000000     1.138000000     6.945000000
H    -1.065000000     0.482000000     7.460000000
H    -1.168000000     1.905000000     6.955000000
O     3.574000000     0.296000000    -2.729000000
H     3.624000000    -0.315000000    -1.995000000
H     3.575000000    -0.262000000    -3.507000000
O    -0.777000000    -2.851000000    -5.079000000
H    -1.459000000    -2.222000000    -4.844000000
H    -1.072000000    -3.678000000    -4.698000000
O    -1.461000000    -3.074000000     6.369000000
H    -1.945000000    -3.882000000     6.198000000
H    -1.472000000    -2.607000000     5.533000000
O    -3.917000000     3.018000000    -1.250000000
H    -4.695000000     3.312000000    -0.776000000
H    -3.286000000     2.801000000    -0.563000000
O    -6.291000000    -2.447000000    -4.915000000
H    -5.821000000    -2.631000000    -5.728000000
H    -5.768000000    -2.869000000    -4.234000000
O     4.014000000    -1.537000000    -0.170000000
H     3.715000000    -1.190000000     0.670000000
H     4.524000000    -2.314000000     0.059000000
O     2.807000000    -4.219000000     2.740000000
H     3.349000000    -3.448000000     2.909000000
H     3.166000000    -4.593000000     1.935000000
O    -5.530000000    -3.203000000    -0.531000000
H    -5.863000000    -2.309000000    -0.455000000
H    -6.271000000    -3.707000000    -0.868000000
O     0.585000000    -1.870000000     4.610000000
H     1.047000000    -1.923000000     5.446000000
H     0.935000000    -1.083000000     4.192000000
O    -1.546000000     2.638000000     0.458000000
H    -1.347000000     2.949000000     1.341000000
H    -1.148000000     1.768000000     0.415000000
O    -3.200000000     3.239000000    -3.940000000
H    -2.250000000     3.186000000    -3.840000000
H    -3.528000000     3.370000000    -3.051000000
O    -0.537000000     3.184000000    -4.072000000
H     0.242000000     2.723000000    -4.382000000
H    -0.195000000     3.903000000    -3.541000000
O    -1.494000000    -5.631000000    -0.960000000
H    -2.249000000    -5.478000000    -0.392000000
H    -0.807000000    -5.070000000    -0.601000000
O     4.692000000    -2.136000000     3.236000000
H     5.219000000    -1.501000000     2.751000000
H     4.976000000    -2.039000000     4.145000000
O     2.728000000    -0.427000000     5.710000000
H     3.667000000    -0.301000000     5.849000000
H     2.607000000    -0.306000000     4.768000000
