144
-2817.93741
O    -1.389000000    -2.494000000     1.339000000
H    -2.147000000    -2.212000000     1.851000000
H    -1.028000000    -1.683000000     0.981000000
O    -2.806000000     0.022000000    -5.085000000
H    -3.589000000    -0.398000000    -4.731000000
H    -2.120000000    -0.641000000    -5.001000000
O     1.140000000     5.226000000    -2.905000000
H     0.961000000     4.599000000    -2.204000000
H     2.063000000     5.091000000    -3.116000000
O     1.784000000    -3.183000000    -4.481000000
H     2.112000000    -3.989000000    -4.878000000
H     1.718000000    -3.385000000    -3.548000000
O     5.586000000    -4.049000000     0.911000000
H     5.765000000    -4.020000000     1.851000000
H     4.647000000    -3.878000000     0.840000000
O     1.823000000    -1.032000000    -6.075000000
H     1.897000000    -1.885000000    -5.648000000
H     2.221000000    -0.420000000    -5.456000000
O    -0.837000000     1.605000000    -6.385000000
H    -1.146000000     2.506000000    -6.484000000
H    -1.586000000     1.134000000    -6.020000000
O    -4.630000000     3.337000000    -1.343000000
H    -4.417000000     3.484000000    -2.265000000
H    -5.485000000     3.752000000    -1.226000000
O    -4.322000000     2.533000000    -4.106000000
H    -3.657000000     3.220000000    -4.144000000
H    -3.974000000     1.831000000    -4.656000000
O    -0.552000000     5.521000000     2.090000000
H    -1.118000000     5.022000000     1.501000000
H     0.329000000     5.401000000     1.734000000
O     2.581000000    -4.713000000     0.755000000
H     2.503000000    -5.638000000     0.525000000
H     2.207000000    -4.652000000     1.634000000
O    -1.017000000    -3.611000000    -2.146000000
H    -1.428000000    -3.873000000    -2.970000000
H    -1.632000000    -2.989000000    -1.758000000
O     0.155000000    -4.751000000     2.637000000
H    -0.229000000    -4.025000000     2.147000000
H    -0.591000000    -5.177000000     3.060000000
O    -2.576000000    -1.905000000     6.093000000
H    -2.293000000    -1.660000000     6.973000000
H    -1.765000000    -1.958000000     5.587000000
O     0.495000000     3.849000000    -0.761000000
H    -0.404000000     4.001000000    -0.469000000
H     0.984000000     3.685000000     0.046000000
O     4.321000000    -0.635000000     4.716000000
H     4.854000000     0.124000000     4.480000000
H     3.439000000    -0.410000000     4.420000000
O     3.682000000    -2.916000000     3.246000000
H     4.077000000    -2.201000000     3.746000000
H     3.417000000    -2.512000000     2.420000000
O    -6.021000000    -1.338000000    -1.434000000
H    -6.928000000    -1.638000000    -1.487000000
H    -6.072000000    -0.499000000    -0.976000000
O     5.907000000     1.826000000     3.705000000
H     6.695000000     2.023000000     3.198000000
H     5.620000000     2.675000000     4.042000000
O    -3.415000000     2.857000000     2.866000000
H    -4.128000000     2.271000000     3.118000000
H    -2.753000000     2.736000000     3.547000000
O    -3.648000000    -2.610000000    -1.163000000
H    -3.552000000    -2.156000000    -0.326000000
H    -4.465000000    -2.269000000    -1.527000000
O    -3.701000000    -5.307000000    -0.987000000
H    -4.482000000    -5.548000000    -1.485000000
H    -3.561000000    -4.383000000    -1.192000000
O    -2.296000000     3.913000000     0.296000000
H    -2.761000000     3.686000000    -0.510000000
H    -2.631000000     3.297000000     0.947000000
O     6.320000000    -2.688000000     5.310000000
H     5.552000000    -2.165000000     5.079000000
H     6.392000000    -3.331000000     4.606000000
O    -5.356000000     0.657000000     2.537000000
H    -5.232000000     0.126000000     3.324000000
H    -6.304000000     0.774000000     2.474000000
O     4.828000000    -1.407000000    -0.958000000
H     5.730000000    -1.586000000    -0.691000000
H     4.360000000    -1.257000000    -0.137000000
O    -4.294000000    -0.230000000     5.099000000
H    -4.212000000     0.632000000     5.508000000
H    -3.479000000    -0.679000000     5.324000000
O    -4.381000000    -2.683000000    -6.135000000
H    -3.925000000    -2.297000000    -6.883000000
H    -4.584000000    -1.939000000    -5.568000000
O     2.383000000     2.780000000     3.556000000
H     2.644000000     1.870000000     3.700000000
H     1.885000000     3.013000000     4.339000000
O     0.381000000     0.847000000     6.157000000
H    -0.455000000     0.722000000     6.606000000
H     0.614000000     1.758000000     6.334000000
O     4.653000000     1.460000000    -1.915000000
H     4.688000000     1.855000000    -1.044000000
H     4.310000000     0.579000000    -1.765000000
O     1.974000000    -3.471000000     6.273000000
H     2.321000000    -3.817000000     5.451000000
H     1.541000000    -2.654000000     6.025000000
O    -5.747000000     1.138000000    -0.108000000
H    -5.440000000     1.069000000     0.796000000
H    -5.105000000     1.704000000    -0.536000000
O    -1.654000000     4.608000000    -3.395000000
H    -1.927000000     5.523000000    -3.326000000
H    -0.701000000     4.635000000    -3.307000000
O    -0.771000000    -1.875000000    -5.225000000
H    -0.356000000    -1.787000000    -6.083000000
H    -0.109000000    -2.304000000    -4.682000000
O    -4.131000000    -1.933000000     1.745000000
H    -4.884000000    -2.086000000     2.316000000
H    -3.982000000    -0.989000000     1.793000000
O     5.031000000     1.967000000     0.697000000
H     4.402000000     1.401000000     1.144000000
H     5.820000000     1.922000000     1.238000000
O    -5.205000000    -0.643000000    -4.298000000
H    -5.721000000     0.161000000    -4.242000000
H    -5.173000000    -0.972000000    -3.400000000
O     0.561000000    -1.498000000     4.840000000
H     0.923000000    -1.312000000     3.974000000
H     0.567000000    -0.652000000     5.289000000
O    -1.470000000     3.742000000     4.659000000
H    -1.340000000     4.687000000     4.732000000
H    -0.584000000     3.378000000     4.647000000
O    -1.955000000    -4.291000000    -4.668000000
H    -1.578000000    -4.963000000    -5.237000000
H    -1.768000000    -3.466000000    -5.115000000
O     2.189000000     4.660000000     1.321000000
H     2.338000000     4.106000000     2.088000000
H     2.839000000     5.358000000     1.401000000
O     4.685000000    -2.974000000    -3.112000000
H     3.884000000    -3.470000000    -2.944000000
H     4.753000000    -2.370000000    -2.372000000
O     1.892000000     1.919000000    -5.979000000
H     0.967000000     1.715000000    -6.117000000
H     2.029000000     1.786000000    -5.041000000
O     2.329000000     1.301000000    -3.561000000
H     3.022000000     1.813000000    -3.145000000
H     1.866000000     0.888000000    -2.831000000
O     1.986000000    -4.534000000    -1.965000000
H     1.178000000    -5.021000000    -2.126000000
H     1.990000000    -4.383000000    -1.020000000
O     5.974000000    -0.767000000     2.134000000
H     5.018000000    -0.830000000     2.137000000
H     6.154000000     0.154000000     2.320000000
O     4.976000000    -0.808000000     7.476000000
H     4.404000000    -1.458000000     7.885000000
H     4.580000000    -0.644000000     6.621000000
