144
-2829.74404
O    -2.024000000     2.286000000    -0.350000000
H    -1.863000000     1.343000000    -0.361000000
H    -1.737000000     2.567000000     0.519000000
O     3.446000000     4.178000000     1.507000000
H     3.208000000     4.601000000     2.333000000
H     3.302000000     3.245000000     1.666000000
O    -1.353000000     3.295000000     2.061000000
H    -0.479000000     3.458000000     2.414000000
H    -1.714000000     4.168000000     1.903000000
O    -2.459000000     1.227000000    -6.114000000
H    -1.677000000     1.664000000    -6.450000000
H    -2.670000000     1.697000000    -5.307000000
O    -3.592000000     2.145000000     4.353000000
H    -3.799000000     3.053000000     4.575000000
H    -3.311000000     2.180000000     3.439000000
O    -5.029000000     1.939000000    -4.406000000
H    -4.211000000     2.398000000    -4.213000000
H    -5.671000000     2.636000000    -4.534000000
O     0.815000000    -1.135000000     7.507000000
H     1.536000000    -0.970000000     8.114000000
H     1.214000000    -1.070000000     6.639000000
O     6.171000000     5.188000000     1.233000000
H     5.255000000     5.076000000     1.489000000
H     6.278000000     4.617000000     0.472000000
O     4.667000000     2.061000000    -2.420000000
H     4.140000000     1.659000000    -3.111000000
H     4.255000000     2.912000000    -2.268000000
O    -0.399000000     1.648000000     7.935000000
H     0.107000000     0.849000000     7.789000000
H     0.254000000     2.348000000     7.943000000
O     6.589000000     1.211000000     3.231000000
H     7.081000000     1.968000000     3.547000000
H     6.353000000     1.436000000     2.331000000
O    -3.766000000    -1.306000000     2.819000000
H    -3.207000000    -1.904000000     3.316000000
H    -4.203000000    -0.777000000     3.487000000
O     0.682000000    -5.117000000    -0.177000000
H     0.698000000    -4.875000000    -1.103000000
H     1.489000000    -4.747000000     0.180000000
O     1.540000000     3.588000000     7.647000000
H     2.349000000     3.078000000     7.631000000
H     1.298000000     3.683000000     6.725000000
O    -4.249000000    -2.785000000    -2.529000000
H    -4.162000000    -2.281000000    -1.720000000
H    -3.762000000    -3.592000000    -2.362000000
O     3.366000000     5.103000000     4.263000000
H     2.945000000     5.960000000     4.330000000
H     3.752000000     4.957000000     5.127000000
O     0.997000000    -5.990000000    -5.436000000
H     0.700000000    -6.688000000    -4.852000000
H     0.234000000    -5.421000000    -5.536000000
O     2.059000000    -2.742000000    -4.999000000
H     1.323000000    -2.454000000    -5.539000000
H     2.735000000    -2.992000000    -5.629000000
O    -1.991000000    -1.545000000     4.984000000
H    -2.423000000    -2.134000000     5.603000000
H    -1.988000000    -0.695000000     5.425000000
O    -4.380000000    -3.544000000    -5.710000000
H    -4.951000000    -3.329000000    -4.973000000
H    -4.808000000    -4.286000000    -6.137000000
O    -1.524000000     4.018000000     6.195000000
H    -0.708000000     3.816000000     5.737000000
H    -1.247000000     4.286000000     7.071000000
O     4.067000000     4.626000000    -2.104000000
H     3.233000000     4.818000000    -1.677000000
H     4.557000000     5.447000000    -2.055000000
O    -1.491000000    -5.947000000    -3.764000000
H    -2.378000000    -6.271000000    -3.919000000
H    -1.051000000    -6.664000000    -3.307000000
O    -2.659000000    -1.651000000    -5.252000000
H    -3.288000000    -2.322000000    -5.518000000
H    -2.913000000    -0.874000000    -5.750000000
O    -2.511000000     3.281000000    -4.272000000
H    -2.409000000     3.979000000    -4.919000000
H    -2.001000000     3.577000000    -3.518000000
O    -1.446000000     4.351000000    -2.070000000
H    -2.000000000     5.000000000    -1.637000000
H    -1.563000000     3.554000000    -1.554000000
O    -5.990000000    -0.462000000    -3.939000000
H    -5.418000000    -1.124000000    -3.550000000
H    -5.470000000     0.341000000    -3.924000000
O    -0.054000000    -1.603000000    -6.508000000
H     0.115000000    -1.187000000    -7.354000000
H    -0.945000000    -1.336000000    -6.284000000
O     4.077000000     1.278000000     4.464000000
H     3.427000000     1.306000000     3.762000000
H     4.919000000     1.339000000     4.013000000
O    -2.552000000    -4.817000000    -1.396000000
H    -1.749000000    -4.900000000    -0.881000000
H    -2.269000000    -4.938000000    -2.302000000
O     2.094000000    -0.354000000     5.224000000
H     1.545000000     0.134000000     4.609000000
H     2.977000000    -0.015000000     5.076000000
O    -2.920000000     1.016000000     6.896000000
H    -2.088000000     1.270000000     7.297000000
H    -2.947000000     1.500000000     6.072000000
O    -4.999000000     1.648000000    -0.815000000
H    -4.077000000     1.762000000    -1.045000000
H    -5.034000000     0.797000000    -0.380000000
O     2.608000000     0.159000000    -3.928000000
H     1.910000000    -0.367000000    -3.538000000
H     2.692000000    -0.178000000    -4.820000000
O    -1.917000000    -4.828000000     1.720000000
H    -1.916000000    -4.706000000     2.670000000
H    -0.996000000    -4.764000000     1.469000000
O     3.187000000    -1.443000000     2.483000000
H     2.500000000    -1.724000000     1.878000000
H     3.859000000    -1.059000000     1.919000000
O    -4.200000000    -3.701000000     0.511000000
H    -3.675000000    -4.395000000     0.115000000
H    -3.598000000    -3.255000000     1.107000000
O     1.434000000     5.294000000    -1.427000000
H     1.051000000     5.767000000    -0.688000000
H     0.700000000     4.817000000    -1.813000000
O    -4.965000000    -0.837000000     0.344000000
H    -4.469000000    -0.804000000     1.162000000
H    -5.530000000    -1.603000000     0.438000000
O     2.266000000    -2.638000000     0.046000000
H     1.369000000    -2.305000000     0.038000000
H     2.749000000    -2.038000000    -0.522000000
O    -0.890000000    -4.302000000    -5.817000000
H    -1.423000000    -4.788000000    -5.188000000
H    -1.052000000    -3.382000000    -5.607000000
O     3.461000000    -2.351000000    -2.611000000
H     2.850000000    -2.434000000    -3.343000000
H     3.790000000    -3.239000000    -2.471000000
O     2.904000000     3.035000000    -5.550000000
H     3.811000000     3.187000000    -5.813000000
H     2.917000000     2.173000000    -5.132000000
O    -1.471000000    -4.577000000     4.431000000
H    -1.751000000    -3.675000000     4.585000000
H    -1.923000000    -5.087000000     5.104000000
O     1.219000000    -2.886000000     4.318000000
H     0.481000000    -2.423000000     4.714000000
H     1.780000000    -2.191000000     3.972000000
O     4.518000000     0.943000000     1.059000000
H     3.757000000     1.308000000     1.511000000
H     4.425000000     1.243000000     0.155000000
O     3.948000000     1.938000000     7.166000000
H     3.848000000     1.793000000     6.225000000
H     4.883000000     2.102000000     7.285000000
O     0.995000000     3.520000000     4.845000000
H     0.792000000     2.712000000     4.375000000
H     1.837000000     3.801000000     4.488000000
