144
-2830.29404
O    -2.550000000     3.316000000     2.399000000
H    -1.991000000     3.202000000     1.630000000
H    -1.945000000     3.283000000     3.141000000
O     3.015000000     5.352000000     4.994000000
H     2.584000000     6.207000000     5.015000000
H     2.712000000     4.951000000     4.179000000
O     5.627000000    -1.374000000     0.390000000
H     4.811000000    -1.356000000    -0.110000000
H     5.372000000    -1.692000000     1.255000000
O     0.986000000     1.939000000    -5.879000000
H     0.662000000     2.153000000    -6.754000000
H     0.320000000     1.357000000    -5.512000000
O     2.623000000     5.405000000     1.756000000
H     1.858000000     5.569000000     2.308000000
H     2.651000000     4.453000000     1.660000000
O    -4.271000000    -2.487000000    -5.633000000
H    -4.214000000    -3.049000000    -4.860000000
H    -5.084000000    -2.753000000    -6.063000000
O     2.466000000    -2.829000000    -6.308000000
H     2.353000000    -2.868000000    -5.359000000
H     2.848000000    -1.966000000    -6.469000000
O     0.208000000     5.861000000     2.700000000
H     0.060000000     6.793000000     2.861000000
H    -0.400000000     5.417000000     3.290000000
O     5.474000000     4.382000000     1.913000000
H     5.291000000     5.319000000     1.984000000
H     4.993000000     3.988000000     2.641000000
O    -4.612000000     2.232000000    -5.122000000
H    -4.458000000     1.686000000    -4.351000000
H    -4.495000000     1.637000000    -5.863000000
O     3.656000000    -1.721000000    -1.505000000
H     3.258000000    -0.891000000    -1.768000000
H     3.098000000    -2.390000000    -1.902000000
O    -5.069000000     0.317000000     2.495000000
H    -4.479000000    -0.350000000     2.849000000
H    -5.515000000     0.673000000     3.263000000
O     4.236000000     7.476000000     2.474000000
H     3.715000000     8.245000000     2.705000000
H     3.610000000     6.875000000     2.070000000
O     3.950000000     3.798000000    -0.713000000
H     3.196000000     3.365000000    -0.312000000
H     4.473000000     4.102000000     0.029000000
O    -2.761000000    -1.763000000     3.587000000
H    -2.862000000    -2.516000000     4.169000000
H    -1.818000000    -1.600000000     3.569000000
O    -4.546000000    -2.930000000     1.452000000
H    -4.017000000    -2.665000000     2.204000000
H    -3.970000000    -3.501000000     0.943000000
O     2.672000000    -3.770000000    -3.301000000
H     3.510000000    -4.194000000    -3.115000000
H     2.015000000    -4.405000000    -3.017000000
O    -4.332000000     0.362000000    -3.039000000
H    -4.463000000    -0.004000000    -2.165000000
H    -3.464000000     0.764000000    -3.003000000
O    -2.854000000    -4.633000000    -0.094000000
H    -2.227000000    -5.193000000     0.364000000
H    -3.483000000    -5.243000000    -0.481000000
O     0.496000000    -5.289000000    -2.122000000
H     0.352000000    -6.154000000    -2.504000000
H    -0.117000000    -4.718000000    -2.585000000
O     3.877000000     1.850000000    -5.242000000
H     2.936000000     2.021000000    -5.232000000
H     4.249000000     2.582000000    -5.734000000
O    -0.978000000     5.988000000    -0.042000000
H    -0.660000000     6.207000000     0.833000000
H    -0.270000000     6.257000000    -0.628000000
O     6.499000000     2.075000000     1.675000000
H     7.230000000     2.016000000     1.060000000
H     5.958000000     2.788000000     1.336000000
O     4.171000000     2.364000000     3.412000000
H     3.259000000     2.485000000     3.148000000
H     4.418000000     1.518000000     3.039000000
O    -5.152000000     2.715000000     1.449000000
H    -5.372000000     1.813000000     1.684000000
H    -4.309000000     2.874000000     1.874000000
O    -0.788000000    -3.980000000    -4.558000000
H    -0.910000000    -3.061000000    -4.796000000
H    -0.461000000    -4.394000000    -5.357000000
O     1.308000000     0.190000000     5.000000000
H     1.354000000     0.748000000     4.224000000
H     1.105000000     0.791000000     5.716000000
O    -3.613000000    -4.244000000    -3.843000000
H    -3.642000000    -3.635000000    -3.105000000
H    -2.743000000    -4.118000000    -4.223000000
O    -4.020000000     3.235000000    -1.153000000
H    -4.509000000     2.664000000    -0.560000000
H    -3.972000000     4.073000000    -0.693000000
O     0.053000000    -1.899000000     3.799000000
H     0.677000000    -2.406000000     3.278000000
H     0.570000000    -1.176000000     4.154000000
O    -0.669000000     2.839000000     4.545000000
H     0.033000000     2.582000000     3.947000000
H    -0.497000000     2.342000000     5.344000000
O     6.558000000     0.599000000    -1.305000000
H     6.246000000    -0.125000000    -0.762000000
H     5.763000000     0.971000000    -1.687000000
O    -1.750000000    -1.863000000    -5.953000000
H    -1.540000000    -1.764000000    -6.882000000
H    -2.661000000    -2.156000000    -5.944000000
O    -0.202000000     3.599000000    -1.145000000
H     0.292000000     3.249000000    -0.403000000
H    -0.668000000     4.354000000    -0.788000000
O    -5.370000000    -3.546000000    -1.710000000
H    -5.926000000    -4.229000000    -2.086000000
H    -5.985000000    -2.914000000    -1.338000000
O     2.393000000    -2.992000000     2.951000000
H     2.194000000    -3.472000000     3.755000000
H     1.949000000    -3.487000000     2.261000000
O    -6.950000000    -1.697000000    -4.374000000
H    -7.664000000    -1.472000000    -3.778000000
H    -6.176000000    -1.285000000    -3.989000000
O    -2.227000000     1.827000000    -2.526000000
H    -1.309000000     1.979000000    -2.303000000
H    -2.713000000     2.438000000    -1.972000000
O    -5.068000000    -0.515000000    -0.342000000
H    -5.246000000    -0.141000000     0.521000000
H    -4.901000000    -1.442000000    -0.172000000
O     2.304000000    -6.145000000     0.212000000
H     1.921000000    -6.004000000    -0.654000000
H     2.010000000    -5.395000000     0.729000000
O     0.548000000    -3.743000000     1.205000000
H    -0.172000000    -4.106000000     0.689000000
H     0.726000000    -2.892000000     0.804000000
O     0.419000000     4.477000000    -3.752000000
H     0.083000000     3.880000000    -4.421000000
H     0.411000000     3.961000000    -2.945000000
O     1.522000000     6.181000000    -0.760000000
H     2.127000000     6.637000000    -1.346000000
H     2.006000000     6.092000000     0.061000000
O     4.292000000     1.509000000    -2.304000000
H     4.502000000     1.579000000    -3.235000000
H     4.007000000     2.388000000    -2.056000000
O    -0.874000000     0.476000000    -4.757000000
H    -1.382000000     0.465000000    -3.946000000
H    -1.260000000    -0.219000000    -5.291000000
O     3.929000000     3.111000000     6.673000000
H     3.690000000     3.630000000     7.441000000
H     3.356000000     3.435000000     5.978000000
O    -3.332000000     0.603000000     5.872000000
H    -2.511000000     1.065000000     6.042000000
H    -3.108000000    -0.046000000     5.205000000
O    -0.855000000     1.409000000     7.039000000
H    -0.438000000     0.912000000     7.743000000
H    -0.788000000     2.322000000     7.318000000
