144
-2797.14688
O    -1.311000000    -2.240000000    -7.924000000
H    -1.576000000    -2.463000000    -7.032000000
H    -0.499000000    -1.744000000    -7.816000000
O    -3.809000000    -0.409000000     4.776000000
H    -4.625000000     0.007000000     5.053000000
H    -3.670000000    -1.112000000     5.410000000
O    -3.396000000    -3.205000000    -3.649000000
H    -3.137000000    -3.986000000    -3.158000000
H    -3.658000000    -3.538000000    -4.507000000
O     4.068000000     3.856000000     3.279000000
H     4.437000000     3.289000000     3.956000000
H     3.578000000     3.263000000     2.710000000
O     1.501000000     2.820000000    -2.326000000
H     1.005000000     2.680000000    -1.519000000
H     0.907000000     3.318000000    -2.888000000
O    -1.685000000     2.465000000     4.037000000
H    -0.848000000     2.176000000     3.674000000
H    -1.759000000     1.999000000     4.869000000
O     0.029000000    -4.876000000    -1.892000000
H    -0.796000000    -5.175000000    -2.275000000
H     0.702000000    -5.194000000    -2.493000000
O    -1.702000000    -1.808000000    -5.275000000
H    -2.362000000    -2.075000000    -4.635000000
H    -1.607000000    -0.865000000    -5.142000000
O    -0.350000000     4.069000000    -0.168000000
H    -0.474000000     3.899000000     0.766000000
H    -0.546000000     5.000000000    -0.271000000
O    -0.045000000    -6.356000000     0.560000000
H     0.210000000    -5.780000000    -0.160000000
H     0.060000000    -5.820000000     1.346000000
O    -6.246000000     0.155000000     1.111000000
H    -6.459000000     0.517000000     1.972000000
H    -5.426000000    -0.320000000     1.247000000
O    -1.645000000    -1.327000000     7.018000000
H    -1.161000000    -2.134000000     7.193000000
H    -1.338000000    -1.045000000     6.157000000
O     1.050000000     4.065000000     5.267000000
H     0.884000000     3.284000000     5.794000000
H     1.197000000     3.731000000     4.382000000
O     2.377000000     3.708000000     7.818000000
H     3.035000000     4.385000000     7.659000000
H     2.687000000     2.951000000     7.321000000
O     3.506000000    -2.228000000     0.837000000
H     2.609000000    -2.516000000     0.667000000
H     3.903000000    -2.953000000     1.319000000
O     1.690000000    -0.190000000    -5.359000000
H     1.444000000    -1.090000000    -5.144000000
H     1.989000000    -0.234000000    -6.267000000
O    -6.164000000    -2.347000000    -2.873000000
H    -6.062000000    -1.436000000    -3.146000000
H    -5.271000000    -2.691000000    -2.848000000
O     4.988000000    -1.468000000    -1.973000000
H     5.364000000    -1.022000000    -1.214000000
H     4.073000000    -1.617000000    -1.734000000
O    -0.121000000     6.218000000     3.882000000
H    -1.007000000     5.969000000     4.143000000
H     0.435000000     5.515000000     4.218000000
O     5.329000000     1.172000000     0.366000000
H     4.580000000     1.764000000     0.299000000
H     5.947000000     1.630000000     0.935000000
O    -3.567000000     1.011000000    -6.153000000
H    -2.941000000     0.886000000    -5.440000000
H    -3.857000000     1.919000000    -6.060000000
O    -2.525000000    -5.985000000    -2.934000000
H    -2.495000000    -6.569000000    -3.691000000
H    -3.120000000    -6.417000000    -2.321000000
O     6.216000000    -0.296000000     5.222000000
H     6.930000000     0.321000000     5.058000000
H     5.511000000    -0.005000000     4.643000000
O     4.462000000     6.040000000     4.625000000
H     4.253000000     5.823000000     5.533000000
H     4.087000000     5.323000000     4.115000000
O    -3.629000000     1.795000000     0.214000000
H    -3.160000000     0.983000000     0.023000000
H    -3.770000000     1.774000000     1.161000000
O     0.805000000    -2.789000000    -4.810000000
H     0.809000000    -3.731000000    -4.638000000
H    -0.039000000    -2.627000000    -5.232000000
O     1.987000000     1.245000000     5.812000000
H     1.520000000     1.394000000     4.990000000
H     2.150000000     0.302000000     5.827000000
O    -5.592000000     2.143000000    -1.661000000
H    -6.118000000     2.713000000    -1.100000000
H    -4.800000000     1.970000000    -1.153000000
O     3.870000000     4.175000000    -2.064000000
H     3.000000000     3.777000000    -2.089000000
H     4.398000000     3.636000000    -2.653000000
O     0.072000000    -0.916000000     4.701000000
H     0.030000000    -0.087000000     4.224000000
H     0.985000000    -1.192000000     4.622000000
O    -1.543000000     1.343000000     6.652000000
H    -1.228000000     1.900000000     7.364000000
H    -1.700000000     0.494000000     7.065000000
O     5.584000000     1.928000000    -3.833000000
H     6.105000000     1.183000000    -4.133000000
H     4.689000000     1.593000000    -3.790000000
O     1.599000000    -5.448000000    -4.253000000
H     1.436000000    -6.240000000    -4.766000000
H     2.452000000    -5.138000000    -4.556000000
O     3.141000000     0.968000000    -3.313000000
H     2.548000000     1.660000000    -3.021000000
H     2.616000000     0.442000000    -3.916000000
O    -3.208000000    -3.797000000     3.864000000
H    -3.565000000    -3.934000000     4.741000000
H    -2.545000000    -4.480000000     3.765000000
O    -2.246000000     3.956000000    -2.047000000
H    -1.818000000     3.665000000    -1.242000000
H    -2.965000000     4.512000000    -1.749000000
O    -1.699000000    -5.000000000    -6.133000000
H    -0.971000000    -5.162000000    -6.734000000
H    -1.347000000    -5.210000000    -5.268000000
O    -4.097000000    -1.751000000     2.290000000
H    -3.864000000    -0.961000000     2.777000000
H    -3.639000000    -2.457000000     2.745000000
O     1.077000000    -3.351000000     0.054000000
H     0.547000000    -3.685000000    -0.669000000
H     0.868000000    -2.418000000     0.093000000
O     4.191000000     0.727000000     3.501000000
H     4.759000000     0.617000000     2.739000000
H     3.518000000     1.343000000     3.211000000
O    -2.264000000     5.272000000     4.889000000
H    -2.863000000     5.916000000     5.266000000
H    -2.165000000     4.608000000     5.572000000
O    -4.284000000     2.396000000     3.065000000
H    -4.929000000     2.533000000     3.759000000
H    -3.442000000     2.378000000     3.521000000
O    -1.154000000     0.812000000    -4.619000000
H    -1.249000000     1.764000000    -4.628000000
H    -0.219000000     0.666000000    -4.474000000
O    -2.199000000     3.972000000     1.962000000
H    -1.839000000     3.581000000     2.758000000
H    -3.079000000     3.603000000     1.891000000
O     5.035000000    -0.981000000    -4.825000000
H     4.226000000    -0.469000000    -4.844000000
H     5.221000000    -1.099000000    -3.893000000
O     2.773000000    -1.210000000     4.983000000
H     3.448000000    -1.889000000     5.003000000
H     3.182000000    -0.479000000     4.521000000
O     6.238000000    -1.366000000     1.121000000
H     5.377000000    -1.773000000     1.219000000
H     6.048000000    -0.448000000     0.927000000
O     5.489000000     4.138000000     1.046000000
H     5.048000000     4.296000000     0.211000000
H     4.783000000     4.132000000     1.692000000
