144
-2799.78297
O    -0.183000000     4.325000000     1.415000000
H     0.327000000     3.517000000     1.357000000
H     0.458000000     4.996000000     1.649000000
O    -0.160000000    -1.996000000    -7.361000000
H    -0.462000000    -1.112000000    -7.571000000
H    -0.574000000    -2.198000000    -6.522000000
O    -2.864000000     0.253000000    -6.066000000
H    -2.140000000     0.861000000    -5.915000000
H    -3.104000000    -0.055000000    -5.192000000
O     7.736000000     2.016000000    -0.051000000
H     7.212000000     1.595000000     0.630000000
H     7.293000000     2.849000000    -0.214000000
O     2.827000000     6.177000000     4.540000000
H     2.211000000     5.923000000     5.227000000
H     3.193000000     5.350000000     4.227000000
O     6.590000000    -1.391000000    -0.534000000
H     6.842000000    -2.251000000    -0.872000000
H     7.213000000    -0.785000000    -0.934000000
O     0.863000000    -0.061000000    -4.055000000
H     0.457000000     0.575000000    -4.645000000
H     0.692000000     0.283000000    -3.179000000
O     6.167000000     4.522000000     1.124000000
H     6.140000000     5.473000000     1.021000000
H     5.865000000     4.370000000     2.020000000
O    -0.192000000    -6.092000000     0.963000000
H    -0.378000000    -6.852000000     1.514000000
H    -1.046000000    -5.683000000     0.824000000
O     3.324000000    -1.337000000    -4.467000000
H     3.989000000    -0.909000000    -3.928000000
H     2.521000000    -0.846000000    -4.294000000
O     1.532000000     6.312000000     2.091000000
H     2.477000000     6.299000000     1.941000000
H     1.439000000     6.515000000     3.022000000
O     4.654000000    -1.722000000     1.376000000
H     4.050000000    -2.456000000     1.262000000
H     5.377000000    -1.912000000     0.778000000
O     2.985000000     0.443000000     6.237000000
H     3.063000000     0.583000000     5.294000000
H     3.391000000     1.217000000     6.628000000
O     5.682000000     0.734000000     1.516000000
H     4.901000000     1.229000000     1.271000000
H     5.581000000    -0.108000000     1.071000000
O    -4.013000000    -1.092000000     3.602000000
H    -4.283000000    -1.937000000     3.962000000
H    -3.216000000    -1.286000000     3.109000000
O    -6.264000000    -0.767000000     1.629000000
H    -6.690000000     0.060000000     1.852000000
H    -5.515000000    -0.819000000     2.223000000
O     2.585000000    -3.388000000    -2.656000000
H     3.050000000    -2.564000000    -2.510000000
H     1.972000000    -3.194000000    -3.364000000
O    -2.937000000    -2.698000000    -4.077000000
H    -3.567000000    -3.094000000    -4.678000000
H    -3.474000000    -2.208000000    -3.455000000
O    -2.477000000    -4.818000000     1.404000000
H    -2.857000000    -4.686000000     0.535000000
H    -3.211000000    -5.109000000     1.945000000
O     2.061000000    -4.628000000     1.240000000
H     1.232000000    -5.007000000     0.950000000
H     1.834000000    -3.741000000     1.520000000
O     4.665000000     2.694000000    -0.621000000
H     4.846000000     3.603000000    -0.381000000
H     4.063000000     2.383000000     0.055000000
O     1.003000000    -5.884000000    -2.061000000
H     1.941000000    -6.067000000    -2.110000000
H     0.938000000    -4.935000000    -2.169000000
O    -4.862000000     3.277000000    -0.524000000
H    -4.613000000     3.370000000     0.395000000
H    -4.836000000     2.334000000    -0.686000000
O     0.985000000     5.383000000     6.428000000
H     0.118000000     5.657000000     6.130000000
H     1.053000000     4.468000000     6.155000000
O    -2.462000000     2.346000000     5.815000000
H    -1.569000000     2.667000000     5.689000000
H    -2.410000000     1.796000000     6.596000000
O    -4.760000000     0.606000000    -0.584000000
H    -4.902000000     0.135000000     0.237000000
H    -4.695000000    -0.081000000    -1.247000000
O     5.391000000     1.467000000    -4.613000000
H     5.120000000     1.084000000    -3.778000000
H     4.880000000     2.273000000    -4.684000000
O    -0.135000000    -4.653000000    -6.111000000
H    -0.759000000    -4.456000000    -6.810000000
H    -0.247000000    -3.940000000    -5.482000000
O    -4.504000000     4.454000000     2.234000000
H    -5.208000000     4.329000000     2.870000000
H    -3.705000000     4.238000000     2.716000000
O    -3.092000000    -5.945000000    -3.962000000
H    -2.785000000    -6.409000000    -4.741000000
H    -2.502000000    -5.196000000    -3.882000000
O     3.354000000     3.848000000     4.182000000
H     2.750000000     3.481000000     3.537000000
H     4.210000000     3.501000000     3.933000000
O    -3.278000000    -4.932000000    -1.465000000
H    -4.197000000    -4.782000000    -1.684000000
H    -2.954000000    -5.497000000    -2.167000000
O    -1.992000000     3.780000000     3.462000000
H    -1.357000000     4.198000000     2.880000000
H    -1.540000000     3.005000000     3.794000000
O     1.319000000    -2.097000000     1.759000000
H     1.191000000    -1.412000000     1.103000000
H     1.317000000    -1.631000000     2.595000000
O     0.128000000     2.398000000     4.729000000
H     0.721000000     2.448000000     3.979000000
H     0.411000000     1.618000000     5.206000000
O     4.507000000     2.643000000     6.572000000
H     3.985000000     3.178000000     5.975000000
H     4.955000000     3.277000000     7.132000000
O    -5.980000000    -3.449000000     1.644000000
H    -6.651000000    -3.912000000     1.144000000
H    -6.080000000    -2.532000000     1.388000000
O     0.197000000    -2.810000000    -4.169000000
H     0.467000000    -1.892000000    -4.143000000
H    -0.613000000    -2.837000000    -3.661000000
O    -1.392000000     4.750000000    -1.543000000
H    -2.073000000     5.376000000    -1.789000000
H    -1.370000000     4.786000000    -0.586000000
O     5.795000000     2.725000000     3.549000000
H     6.602000000     2.383000000     3.935000000
H     5.540000000     2.065000000     2.904000000
O     3.554000000     0.570000000     3.679000000
H     3.178000000     1.269000000     3.143000000
H     4.014000000     0.010000000     3.054000000
O    -5.052000000    -1.687000000    -2.375000000
H    -5.961000000    -1.485000000    -2.597000000
H    -5.102000000    -2.508000000    -1.885000000
O    -0.970000000    -3.308000000     3.330000000
H    -1.488000000    -3.728000000     2.644000000
H    -0.283000000    -2.838000000     2.858000000
O     4.650000000    -4.633000000    -0.941000000
H     4.569000000    -5.514000000    -1.306000000
H     3.874000000    -4.170000000    -1.257000000
O     3.694000000     5.818000000    -0.734000000
H     4.314000000     6.349000000    -0.234000000
H     3.197000000     5.341000000    -0.070000000
O     4.673000000     0.249000000    -2.083000000
H     4.573000000     1.143000000    -1.755000000
H     5.151000000    -0.208000000    -1.391000000
O    -0.852000000     1.568000000    -2.627000000
H    -0.754000000     2.508000000    -2.476000000
H    -1.317000000     1.249000000    -1.854000000
O     0.651000000    -0.675000000     3.898000000
H     1.223000000     0.074000000     4.064000000
H     0.091000000    -0.725000000     4.673000000
