144
-2835.21903
O     0.698000000     4.896000000     1.313000000
H     1.394000000     4.280000000     1.542000000
H     1.110000000     5.758000000     1.379000000
O     7.666000000     2.844000000    -0.684000000
H     6.750000000     2.671000000    -0.899000000
H     7.642000000     3.168000000     0.217000000
O     5.236000000     6.502000000     1.311000000
H     6.008000000     6.524000000     1.877000000
H     4.523000000     6.817000000     1.865000000
O     1.380000000     5.105000000     7.058000000
H     0.963000000     5.706000000     7.675000000
H     1.123000000     5.429000000     6.195000000
O     3.810000000     4.533000000    -2.830000000
H     3.932000000     3.584000000    -2.843000000
H     3.611000000     4.736000000    -1.916000000
O    -0.596000000     0.894000000    -4.306000000
H    -0.051000000     1.660000000    -4.126000000
H    -1.451000000     1.117000000    -3.938000000
O     0.303000000    -5.161000000    -1.536000000
H     0.433000000    -5.725000000    -0.774000000
H    -0.648000000    -5.107000000    -1.634000000
O     3.040000000    -0.908000000     2.843000000
H     3.175000000    -0.585000000     3.734000000
H     3.576000000    -0.333000000     2.297000000
O     2.801000000    -0.500000000     5.691000000
H     2.930000000     0.427000000     5.894000000
H     3.061000000    -0.959000000     6.489000000
O     0.190000000     6.200000000     4.817000000
H    -0.098000000     5.308000000     4.621000000
H    -0.597000000     6.640000000     5.139000000
O     5.734000000     5.064000000     4.618000000
H     5.202000000     4.416000000     4.155000000
H     6.591000000     4.649000000     4.710000000
O     4.628000000     1.779000000    -0.937000000
H     3.938000000     2.386000000    -0.667000000
H     4.874000000     1.323000000    -0.132000000
O    -4.466000000    -1.742000000     1.505000000
H    -4.579000000    -1.159000000     2.256000000
H    -4.125000000    -2.553000000     1.880000000
O    -4.802000000     0.196000000    -0.102000000
H    -4.228000000     0.952000000     0.024000000
H    -4.546000000    -0.416000000     0.588000000
O     2.768000000    -0.717000000    -4.312000000
H     2.580000000    -0.448000000    -5.212000000
H     2.248000000    -1.511000000    -4.186000000
O    -3.560000000    -1.718000000    -5.152000000
H    -3.693000000    -0.989000000    -5.758000000
H    -3.847000000    -1.380000000    -4.304000000
O    -2.650000000    -4.827000000     1.294000000
H    -3.149000000    -5.015000000     0.500000000
H    -2.665000000    -5.648000000     1.787000000
O     2.709000000    -4.582000000     1.600000000
H     2.161000000    -5.270000000     1.219000000
H     2.187000000    -3.785000000     1.511000000
O     3.695000000     4.889000000    -0.221000000
H     4.139000000     5.227000000     0.558000000
H     3.220000000     4.119000000     0.090000000
O     2.022000000    -3.007000000    -1.297000000
H     1.440000000    -2.295000000    -1.029000000
H     1.436000000    -3.745000000    -1.465000000
O    -2.913000000     2.101000000     3.651000000
H    -2.124000000     2.242000000     4.174000000
H    -3.488000000     2.831000000     3.881000000
O    -5.756000000     2.751000000    -1.716000000
H    -6.404000000     2.132000000    -1.378000000
H    -4.916000000     2.404000000    -1.416000000
O    -4.659000000     0.018000000     3.669000000
H    -4.194000000    -0.655000000     4.164000000
H    -4.037000000     0.742000000     3.605000000
O     0.322000000     4.964000000    -1.453000000
H     0.315000000     4.694000000    -0.535000000
H     0.830000000     5.775000000    -1.461000000
O    -3.145000000    -6.847000000    -2.573000000
H    -4.057000000    -7.012000000    -2.333000000
H    -3.178000000    -6.052000000    -3.105000000
O    -3.035000000     2.556000000    -0.747000000
H    -2.472000000     3.040000000    -0.142000000
H    -2.467000000     2.348000000    -1.488000000
O     0.576000000    -4.577000000    -4.572000000
H     0.657000000    -4.467000000    -3.624000000
H     0.055000000    -3.827000000    -4.857000000
O    -7.357000000    -0.603000000    -0.265000000
H    -6.457000000    -0.282000000    -0.209000000
H    -7.883000000     0.088000000     0.136000000
O    -3.469000000    -4.247000000    -3.805000000
H    -4.346000000    -3.891000000    -3.661000000
H    -3.064000000    -3.641000000    -4.426000000
O     4.193000000     2.968000000     3.626000000
H     3.393000000     2.836000000     3.116000000
H     4.888000000     2.597000000     3.083000000
O    -4.441000000    -5.006000000    -0.921000000
H    -4.045000000    -4.399000000    -1.545000000
H    -5.051000000    -4.468000000    -0.416000000
O    -1.833000000     4.344000000     2.017000000
H    -0.950000000     4.444000000     1.662000000
H    -1.711000000     3.843000000     2.824000000
O     1.085000000    -2.307000000     1.906000000
H     0.641000000    -1.612000000     1.420000000
H     1.909000000    -1.911000000     2.190000000
O    -0.412000000     3.396000000     4.185000000
H     0.385000000     3.358000000     3.655000000
H    -0.356000000     2.629000000     4.756000000
O     4.799000000     2.622000000     6.298000000
H     5.670000000     3.019000000     6.311000000
H     4.418000000     2.911000000     5.469000000
O    -6.262000000    -3.280000000     0.189000000
H    -7.183000000    -3.246000000     0.447000000
H    -5.861000000    -2.534000000     0.634000000
O    -0.675000000    -2.007000000    -5.086000000
H    -0.525000000    -1.108000000    -4.795000000
H    -1.627000000    -2.109000000    -5.069000000
O    -7.486000000    -2.416000000    -2.348000000
H    -7.924000000    -3.245000000    -2.157000000
H    -7.163000000    -2.114000000    -1.499000000
O     5.110000000     0.146000000     1.305000000
H     5.960000000     0.137000000     1.745000000
H     5.132000000    -0.616000000     0.727000000
O    -4.949000000    -1.127000000    -2.705000000
H    -5.771000000    -1.596000000    -2.851000000
H    -4.859000000    -1.092000000    -1.753000000
O    -0.811000000    -3.978000000     3.095000000
H    -1.461000000    -4.113000000     2.406000000
H    -0.108000000    -3.489000000     2.668000000
O     1.100000000     3.738000000    -3.878000000
H     1.892000000     4.234000000    -4.087000000
H     0.890000000     3.990000000    -2.979000000
O     4.827000000    -1.752000000    -1.000000000
H     4.065000000    -2.315000000    -1.137000000
H     4.471000000    -0.864000000    -0.997000000
O     4.684000000     1.074000000    -3.675000000
H     3.930000000     0.525000000    -3.891000000
H     4.679000000     1.122000000    -2.719000000
O    -3.148000000    -2.386000000     4.074000000
H    -2.508000000    -3.000000000     3.713000000
H    -2.803000000    -2.163000000     4.939000000
O    -0.921000000     1.200000000     5.854000000
H    -0.865000000     0.256000000     5.707000000
H    -1.223000000     1.283000000     6.759000000
O    -2.722000000     2.249000000    -3.681000000
H    -3.659000000     2.438000000    -3.634000000
H    -2.299000000     3.064000000    -3.409000000
O     0.318000000    -1.811000000     5.432000000
H     1.244000000    -1.621000000     5.282000000
H     0.038000000    -2.278000000     4.645000000
