144
-2790.86275
O     7.452000000    -2.555000000     3.815000000
H     6.735000000    -1.942000000     3.655000000
H     8.068000000    -2.395000000     3.100000000
O    -3.813000000     2.902000000     1.365000000
H    -3.414000000     2.778000000     2.227000000
H    -3.254000000     3.547000000     0.933000000
O     7.001000000    -1.737000000     0.316000000
H     7.823000000    -1.319000000     0.057000000
H     6.551000000    -1.074000000     0.840000000
O    -0.557000000    -5.251000000     1.247000000
H    -0.996000000    -5.259000000     2.098000000
H     0.263000000    -4.783000000     1.405000000
O     2.336000000    -4.808000000     1.735000000
H     2.203000000    -5.115000000     0.838000000
H     3.104000000    -4.240000000     1.683000000
O    -0.889000000     4.745000000    -3.795000000
H    -0.020000000     4.496000000    -3.480000000
H    -0.822000000     4.694000000    -4.749000000
O    -4.309000000     0.896000000    -5.226000000
H    -4.635000000     0.569000000    -4.387000000
H    -4.357000000     1.848000000    -5.147000000
O     5.783000000     3.926000000     3.531000000
H     5.637000000     4.111000000     2.603000000
H     5.686000000     4.775000000     3.962000000
O    -5.488000000    -0.791000000    -2.792000000
H    -6.062000000    -0.106000000    -2.448000000
H    -4.785000000    -0.862000000    -2.146000000
O    -5.200000000     3.324000000    -1.153000000
H    -4.806000000     3.016000000    -0.336000000
H    -6.140000000     3.332000000    -0.977000000
O    -1.210000000    -2.374000000     5.988000000
H    -0.838000000    -1.973000000     5.202000000
H    -1.554000000    -1.637000000     6.493000000
O     4.408000000    -3.164000000     0.781000000
H     4.129000000    -2.378000000     1.252000000
H     5.061000000    -2.849000000     0.156000000
O    -7.618000000     1.191000000    -2.051000000
H    -8.403000000     1.473000000    -2.520000000
H    -7.619000000     1.712000000    -1.248000000
O     4.430000000     1.799000000    -1.305000000
H     4.097000000     1.399000000    -0.501000000
H     5.100000000     2.413000000    -1.007000000
O     1.970000000     1.437000000     5.292000000
H     2.881000000     1.393000000     5.005000000
H     1.955000000     0.954000000     6.118000000
O     3.568000000    -0.108000000    -3.372000000
H     3.250000000    -0.768000000    -2.756000000
H     3.659000000     0.687000000    -2.846000000
O     2.606000000     2.802000000     2.267000000
H     2.974000000     2.124000000     1.700000000
H     2.385000000     2.342000000     3.077000000
O     5.568000000    -5.460000000     1.727000000
H     6.401000000    -5.076000000     2.003000000
H     5.153000000    -4.778000000     1.200000000
O    -3.463000000    -2.106000000    -5.212000000
H    -2.726000000    -1.827000000    -4.668000000
H    -3.699000000    -1.325000000    -5.713000000
O    -6.726000000    -2.247000000    -4.986000000
H    -6.097000000    -1.712000000    -4.502000000
H    -7.499000000    -1.690000000    -5.071000000
O    -5.248000000    -2.701000000     0.235000000
H    -4.623000000    -3.051000000    -0.400000000
H    -5.391000000    -3.419000000     0.852000000
O    -2.087000000    -4.177000000     3.481000000
H    -2.542000000    -3.373000000     3.229000000
H    -1.545000000    -3.921000000     4.228000000
O    -3.645000000    -1.856000000     2.737000000
H    -3.984000000    -1.703000000     1.854000000
H    -3.886000000    -1.068000000     3.225000000
O     4.575000000     1.575000000     4.601000000
H     5.249000000     2.063000000     4.128000000
H     4.703000000     1.816000000     5.518000000
O     1.995000000    -2.599000000     4.052000000
H     1.175000000    -2.113000000     4.131000000
H     2.368000000    -2.308000000     3.220000000
O    -0.392000000    -3.226000000    -1.492000000
H     0.355000000    -2.798000000    -1.074000000
H     0.001000000    -3.838000000    -2.115000000
O     3.020000000    -1.996000000    -1.616000000
H     3.057000000    -2.137000000    -0.670000000
H     3.465000000    -2.756000000    -1.989000000
O    -4.679000000     0.727000000     4.197000000
H    -5.327000000     0.702000000     4.901000000
H    -5.112000000     1.204000000     3.489000000
O    -2.276000000     5.187000000     0.943000000
H    -2.865000000     5.590000000     0.305000000
H    -1.479000000     5.715000000     0.900000000
O     7.659000000     1.793000000    -0.789000000
H     8.292000000     1.112000000    -0.562000000
H     6.940000000     1.668000000    -0.169000000
O    -2.178000000    -6.520000000    -0.765000000
H    -1.896000000    -6.129000000    -1.592000000
H    -1.563000000    -6.176000000    -0.117000000
O    -5.002000000    -4.662000000     2.226000000
H    -4.300000000    -4.251000000     2.731000000
H    -4.561000000    -5.332000000     1.705000000
O    -1.279000000    -1.175000000    -3.789000000
H    -1.076000000    -0.722000000    -2.970000000
H    -0.751000000    -1.973000000    -3.758000000
O     5.210000000    -1.134000000     3.462000000
H     4.825000000    -0.643000000     4.188000000
H     4.599000000    -1.006000000     2.736000000
O     1.320000000    -5.873000000     4.304000000
H     1.374000000    -6.009000000     5.250000000
H     1.583000000    -4.962000000     4.177000000
O    -2.284000000     2.680000000     3.680000000
H    -1.559000000     3.179000000     4.056000000
H    -2.791000000     2.387000000     4.437000000
O    -6.153000000     2.725000000     2.901000000
H    -6.440000000     3.529000000     3.335000000
H    -5.321000000     2.960000000     2.489000000
O     0.195000000    -0.638000000     4.318000000
H    -0.158000000    -0.202000000     3.543000000
H     0.760000000     0.018000000     4.726000000
O    -0.850000000     0.656000000    -5.970000000
H     0.001000000     0.303000000    -5.712000000
H    -1.484000000     0.014000000    -5.651000000
O    -4.117000000     3.300000000    -3.885000000
H    -3.183000000     3.340000000    -3.677000000
H    -4.549000000     3.251000000    -3.032000000
O     2.215000000     4.056000000    -3.782000000
H     2.480000000     4.842000000    -3.304000000
H     3.035000000     3.594000000    -3.957000000
O    -7.797000000    -1.396000000     0.989000000
H    -6.859000000    -1.206000000     1.018000000
H    -7.913000000    -2.119000000     1.606000000
O    -4.561000000    -4.565000000    -4.448000000
H    -4.699000000    -4.891000000    -5.338000000
H    -4.890000000    -3.667000000    -4.469000000
O     3.538000000     5.217000000     1.254000000
H     3.206000000     4.440000000     1.704000000
H     4.368000000     4.934000000     0.869000000
O    -3.199000000    -3.702000000    -1.710000000
H    -2.271000000    -3.489000000    -1.615000000
H    -3.337000000    -3.759000000    -2.655000000
O     6.173000000     4.203000000     0.695000000
H     6.739000000     4.689000000     0.095000000
H     6.645000000     3.387000000     0.861000000
O     6.070000000     1.189000000     1.634000000
H     6.101000000     0.662000000     2.432000000
H     5.167000000     1.104000000     1.326000000
O     3.659000000    -3.311000000     6.193000000
H     2.895000000    -2.908000000     5.781000000
H     3.827000000    -4.095000000     5.670000000
