144
-2789.25290
O     7.741000000    -4.482000000     1.080000000
H     7.365000000    -3.680000000     0.715000000
H     8.396000000    -4.176000000     1.707000000
O     1.753000000     3.319000000    -5.086000000
H     2.356000000     3.240000000    -4.347000000
H     1.015000000     3.820000000    -4.740000000
O     6.149000000    -2.457000000    -0.235000000
H     6.784000000    -1.798000000    -0.516000000
H     5.299000000    -2.089000000    -0.476000000
O     1.979000000    -5.495000000     2.248000000
H     2.854000000    -5.835000000     2.434000000
H     1.515000000    -5.555000000     3.083000000
O    -4.305000000     4.659000000     0.473000000
H    -4.897000000     4.162000000    -0.091000000
H    -4.786000000     5.461000000     0.678000000
O     4.773000000    -3.331000000     2.139000000
H     5.474000000    -3.301000000     1.487000000
H     4.052000000    -2.847000000     1.738000000
O    -2.042000000    -1.147000000    -3.236000000
H    -1.991000000    -1.263000000    -2.287000000
H    -2.403000000    -0.268000000    -3.351000000
O    -5.855000000     0.183000000    -1.052000000
H    -5.787000000     0.573000000    -0.181000000
H    -5.315000000    -0.606000000    -1.003000000
O    -3.176000000     1.404000000    -3.603000000
H    -3.162000000     1.315000000    -4.555000000
H    -3.362000000     2.331000000    -3.451000000
O    -0.807000000     0.196000000    -7.187000000
H    -0.808000000     1.143000000    -7.329000000
H    -0.123000000     0.052000000    -6.533000000
O    -0.488000000     4.901000000    -3.528000000
H    -0.942000000     4.582000000    -2.748000000
H    -0.075000000     5.718000000    -3.247000000
O     3.719000000     3.018000000    -3.312000000
H     3.785000000     2.688000000    -2.415000000
H     4.485000000     2.655000000    -3.757000000
O     0.715000000    -5.247000000     4.696000000
H    -0.013000000    -4.624000000     4.698000000
H     0.726000000    -5.605000000     5.584000000
O     6.280000000    -4.237000000    -2.803000000
H     6.068000000    -3.521000000    -2.205000000
H     7.163000000    -4.038000000    -3.113000000
O    -6.496000000     4.158000000    -1.357000000
H    -6.738000000     4.812000000    -2.012000000
H    -6.709000000     3.319000000    -1.767000000
O     5.584000000     3.711000000    -0.542000000
H     5.321000000     4.062000000     0.309000000
H     5.697000000     2.773000000    -0.389000000
O     5.027000000     0.978000000    -1.792000000
H     5.609000000     0.933000000    -1.033000000
H     4.384000000     0.285000000    -1.642000000
O    -2.299000000     4.332000000    -1.533000000
H    -2.845000000     4.368000000    -2.319000000
H    -2.921000000     4.223000000    -0.814000000
O     3.633000000     0.041000000     2.630000000
H     3.659000000    -0.373000000     1.767000000
H     4.548000000     0.068000000     2.911000000
O     4.460000000    -6.365000000     3.012000000
H     4.814000000    -5.479000000     2.940000000
H     5.124000000    -6.922000000     2.607000000
O    -3.060000000     2.406000000     4.927000000
H    -2.596000000     3.224000000     5.106000000
H    -2.366000000     1.763000000     4.784000000
O    -7.847000000     0.996000000     2.613000000
H    -8.171000000     0.878000000     1.719000000
H    -7.022000000     1.470000000     2.507000000
O    -0.646000000    -2.654000000     5.573000000
H    -1.430000000    -2.279000000     5.172000000
H    -0.328000000    -1.970000000     6.163000000
O    -0.033000000     3.941000000    -0.393000000
H     0.380000000     4.757000000    -0.677000000
H    -0.882000000     3.936000000    -0.836000000
O     1.680000000     2.387000000     1.211000000
H     1.070000000     2.830000000     0.621000000
H     1.504000000     1.455000000     1.082000000
O    -3.208000000    -2.331000000     3.045000000
H    -3.290000000    -2.027000000     3.949000000
H    -3.172000000    -3.285000000     3.115000000
O    -1.756000000     4.830000000     2.271000000
H    -2.478000000     4.499000000     1.737000000
H    -1.006000000     4.290000000     2.021000000
O     5.899000000     1.056000000    -4.340000000
H     5.669000000     0.835000000    -3.437000000
H     5.335000000     0.496000000    -4.874000000
O     3.467000000    -2.275000000    -3.959000000
H     3.206000000    -1.969000000    -3.091000000
H     3.956000000    -3.080000000    -3.792000000
O    -5.211000000    -0.833000000     1.732000000
H    -4.470000000    -1.426000000     1.853000000
H    -5.973000000    -1.340000000     2.011000000
O    -5.595000000     2.627000000     2.559000000
H    -5.011000000     3.109000000     1.973000000
H    -5.355000000     2.925000000     3.436000000
O    -3.045000000     7.378000000     1.948000000
H    -3.977000000     7.307000000     1.743000000
H    -2.724000000     6.476000000     1.922000000
O     7.713000000    -0.106000000    -0.743000000
H     8.019000000    -0.365000000    -1.612000000
H     7.538000000     0.832000000    -0.820000000
O    -4.725000000    -2.949000000    -0.577000000
H    -3.895000000    -2.927000000    -0.101000000
H    -5.353000000    -2.541000000     0.019000000
O     2.243000000    -6.838000000    -1.486000000
H     2.434000000    -5.903000000    -1.416000000
H     2.723000000    -7.122000000    -2.265000000
O    -2.386000000    -2.502000000     0.546000000
H    -1.451000000    -2.329000000     0.433000000
H    -2.545000000    -2.358000000     1.478000000
O    -1.643000000    -2.936000000    -5.415000000
H    -1.668000000    -2.274000000    -4.724000000
H    -0.855000000    -3.447000000    -5.229000000
O     5.357000000    -3.359000000     4.800000000
H     4.532000000    -3.529000000     5.255000000
H     5.136000000    -3.424000000     3.871000000
O     2.210000000    -4.330000000    -0.077000000
H     2.669000000    -3.511000000     0.111000000
H     2.059000000    -4.723000000     0.782000000
O    -5.087000000     0.579000000     5.196000000
H    -5.842000000     0.494000000     4.613000000
H    -4.569000000     1.288000000     4.815000000
O     2.862000000    -3.471000000     5.866000000
H     2.793000000    -4.331000000     6.281000000
H     2.146000000    -3.453000000     5.230000000
O     1.565000000     0.440000000    -5.854000000
H     2.516000000     0.331000000    -5.870000000
H     1.434000000     1.377000000    -5.711000000
O     0.008000000    -4.723000000    -1.818000000
H     0.453000000    -5.496000000    -2.166000000
H     0.642000000    -4.332000000    -1.217000000
O    -8.111000000     1.380000000    -2.365000000
H    -7.422000000     1.056000000    -1.785000000
H    -8.140000000     0.745000000    -3.081000000
O     4.278000000    -0.330000000    -5.947000000
H     4.510000000    -0.778000000    -6.760000000
H     4.018000000    -1.032000000    -5.351000000
O     1.982000000     0.858000000     4.501000000
H     2.357000000     0.421000000     3.736000000
H     2.534000000     0.580000000     5.231000000
O     6.000000000     1.587000000     0.986000000
H     5.477000000     1.988000000     1.680000000
H     6.672000000     1.088000000     1.451000000
O    -0.603000000     1.275000000     4.520000000
H    -0.770000000     0.615000000     5.193000000
H     0.345000000     1.252000000     4.391000000
