144
-2826.95176
O     2.237000000     3.668000000     2.742000000
H     2.523000000     2.891000000     2.261000000
H     2.385000000     3.449000000     3.661000000
O    -3.111000000    -4.127000000     1.791000000
H    -2.182000000    -4.169000000     2.019000000
H    -3.517000000    -4.819000000     2.313000000
O    -8.239000000    -0.328000000    -0.296000000
H    -7.333000000    -0.573000000    -0.485000000
H    -8.474000000     0.280000000    -0.997000000
O    -3.935000000     0.325000000     3.162000000
H    -4.742000000    -0.074000000     2.837000000
H    -3.944000000     1.212000000     2.802000000
O    -4.061000000     2.006000000     0.885000000
H    -4.030000000     1.602000000     0.017000000
H    -4.795000000     2.619000000     0.837000000
O     3.186000000    -2.359000000    -3.838000000
H     3.373000000    -3.006000000    -4.518000000
H     4.034000000    -1.954000000    -3.655000000
O     0.136000000     2.444000000    -1.126000000
H    -0.006000000     2.555000000    -2.066000000
H    -0.127000000     1.541000000    -0.949000000
O     2.116000000     5.784000000     0.853000000
H     1.435000000     5.447000000     0.271000000
H     2.143000000     5.158000000     1.577000000
O    -1.690000000     4.343000000    -3.606000000
H    -2.411000000     3.762000000    -3.365000000
H    -0.999000000     3.754000000    -3.908000000
O     2.633000000     3.347000000    -2.141000000
H     1.795000000     3.467000000    -1.696000000
H     3.284000000     3.384000000    -1.440000000
O    -4.562000000     3.931000000    -3.343000000
H    -4.749000000     4.424000000    -2.544000000
H    -4.713000000     4.557000000    -4.051000000
O     0.752000000    -3.316000000    -6.178000000
H     0.276000000    -2.506000000    -5.998000000
H     0.296000000    -3.701000000    -6.927000000
O    -1.335000000     0.815000000     6.830000000
H    -1.431000000     1.711000000     7.151000000
H    -0.526000000     0.828000000     6.320000000
O    -0.201000000     3.453000000     4.159000000
H     0.531000000     3.915000000     3.751000000
H     0.163000000     2.605000000     4.413000000
O    -5.027000000     4.332000000    -0.354000000
H    -5.575000000     4.946000000     0.135000000
H    -4.219000000     4.815000000    -0.524000000
O    -3.790000000    -2.776000000    -3.920000000
H    -4.592000000    -3.138000000    -3.542000000
H    -3.331000000    -3.535000000    -4.279000000
O     5.961000000    -1.263000000    -3.536000000
H     6.079000000    -2.212000000    -3.501000000
H     6.478000000    -0.930000000    -2.802000000
O     5.556000000    -1.925000000    -0.151000000
H     4.882000000    -1.249000000    -0.218000000
H     5.737000000    -1.992000000     0.786000000
O     5.822000000    -2.952000000     2.396000000
H     6.718000000    -2.617000000     2.359000000
H     5.861000000    -3.790000000     1.936000000
O     6.856000000     3.060000000     3.204000000
H     6.352000000     3.764000000     2.796000000
H     6.994000000     3.355000000     4.104000000
O    -1.369000000     1.410000000    -3.767000000
H    -0.815000000     0.743000000    -4.174000000
H    -2.258000000     1.177000000    -4.032000000
O     5.132000000     5.109000000     1.514000000
H     4.478000000     5.331000000     2.176000000
H     5.823000000     5.762000000     1.631000000
O     3.373000000     1.049000000     4.128000000
H     4.297000000     0.808000000     4.192000000
H     3.205000000     1.108000000     3.187000000
O    -6.334000000    -4.018000000    -2.421000000
H    -5.575000000    -3.696000000    -1.935000000
H    -6.612000000    -3.272000000    -2.953000000
O     3.041000000    -3.219000000    -0.962000000
H     3.908000000    -2.897000000    -0.714000000
H     3.142000000    -3.504000000    -1.870000000
O    -3.768000000     0.130000000    -4.217000000
H    -4.232000000     0.274000000    -5.042000000
H    -3.889000000    -0.801000000    -4.033000000
O    -2.343000000     4.632000000     2.832000000
H    -3.218000000     4.492000000     3.194000000
H    -1.823000000     3.903000000     3.172000000
O     0.425000000    -2.922000000     4.679000000
H    -0.087000000    -2.165000000     4.394000000
H    -0.148000000    -3.383000000     5.290000000
O     4.528000000     3.157000000    -0.318000000
H     4.875000000     3.784000000     0.317000000
H     4.057000000     2.514000000     0.212000000
O     4.231000000     1.031000000    -2.268000000
H     3.491000000     1.637000000    -2.288000000
H     4.146000000     0.577000000    -1.430000000
O    -4.670000000     1.634000000    -2.110000000
H    -4.245000000     1.063000000    -2.750000000
H    -4.895000000     2.423000000    -2.604000000
O     6.233000000     0.583000000     1.342000000
H     5.303000000     0.377000000     1.250000000
H     6.354000000     1.379000000     0.824000000
O     7.785000000    -0.516000000    -1.147000000
H     7.571000000     0.417000000    -1.142000000
H     7.033000000    -0.936000000    -0.729000000
O     0.690000000    -3.212000000     0.417000000
H     0.591000000    -2.276000000     0.239000000
H     1.498000000    -3.457000000    -0.034000000
O    -5.332000000    -2.337000000     1.789000000
H    -4.733000000    -2.362000000     1.043000000
H    -5.098000000    -3.104000000     2.311000000
O     0.798000000     0.875000000     5.108000000
H     0.216000000     0.300000000     4.612000000
H     1.626000000     0.851000000     4.628000000
O    -1.466000000    -0.991000000     4.287000000
H    -2.097000000    -0.444000000     3.819000000
H    -1.994000000    -1.691000000     4.671000000
O     7.188000000     2.583000000    -0.898000000
H     7.625000000     3.258000000    -0.379000000
H     6.259000000     2.806000000    -0.847000000
O    -1.222000000    -1.427000000    -5.766000000
H    -1.845000000    -0.715000000    -5.911000000
H    -1.753000000    -2.223000000    -5.816000000
O     5.948000000     0.728000000     4.076000000
H     6.235000000     1.619000000     3.876000000
H     5.985000000     0.271000000     3.236000000
O    -5.787000000    -0.764000000    -1.602000000
H    -5.045000000    -1.097000000    -1.098000000
H    -5.556000000     0.145000000    -1.796000000
O    -0.709000000     4.258000000     0.536000000
H    -1.148000000     3.700000000     1.178000000
H    -0.288000000     3.644000000    -0.066000000
O    -3.886000000    -4.028000000    -1.109000000
H    -2.991000000    -4.124000000    -1.434000000
H    -3.839000000    -4.298000000    -0.192000000
O    -7.629000000    -0.874000000     2.670000000
H    -8.463000000    -1.259000000     2.402000000
H    -6.973000000    -1.338000000     2.150000000
O     0.664000000    -3.052000000    -3.397000000
H     1.447000000    -2.533000000    -3.214000000
H     0.768000000    -3.331000000    -4.306000000
O     5.446000000     2.921000000    -3.962000000
H     5.475000000     2.355000000    -4.733000000
H     5.076000000     2.369000000    -3.273000000
O    -1.001000000    -4.365000000    -1.757000000
H    -0.509000000    -4.013000000    -2.499000000
H    -0.694000000    -3.858000000    -1.004000000
O     8.468000000    -1.231000000     2.156000000
H     8.000000000    -0.715000000     1.499000000
H     9.060000000    -0.606000000     2.573000000
