144
-2808.46590
O    -2.032000000     3.915000000    -4.525000000
H    -1.990000000     3.212000000    -5.173000000
H    -2.826000000     3.732000000    -4.023000000
O     0.928000000     4.629000000     2.940000000
H     0.345000000     5.232000000     3.402000000
H     1.246000000     4.035000000     3.620000000
O    -1.060000000    -2.570000000     1.281000000
H    -0.671000000    -2.745000000     2.138000000
H    -0.475000000    -1.927000000     0.879000000
O    -1.287000000    -0.627000000     4.533000000
H    -0.464000000    -0.532000000     5.013000000
H    -1.643000000    -1.464000000     4.831000000
O    -0.046000000    -1.802000000    -4.194000000
H    -0.607000000    -2.242000000    -3.555000000
H    -0.510000000    -0.990000000    -4.401000000
O    -4.242000000     0.598000000     4.711000000
H    -4.511000000     0.444000000     5.616000000
H    -4.039000000     1.533000000     4.677000000
O    -0.991000000    -2.226000000    -7.011000000
H    -1.468000000    -2.980000000    -7.358000000
H    -1.058000000    -2.316000000    -6.060000000
O    -5.545000000     1.124000000    -2.628000000
H    -5.681000000     0.243000000    -2.976000000
H    -5.717000000     1.039000000    -1.690000000
O    -4.373000000     3.549000000    -3.612000000
H    -4.732000000     2.915000000    -2.991000000
H    -4.891000000     4.341000000    -3.471000000
O     5.936000000    -4.098000000     2.477000000
H     5.038000000    -4.039000000     2.150000000
H     6.082000000    -3.265000000     2.926000000
O     1.651000000     0.543000000    -5.670000000
H     2.508000000     0.116000000    -5.677000000
H     1.122000000     0.008000000    -5.078000000
O    -6.953000000     3.542000000     1.976000000
H    -7.748000000     3.146000000     1.620000000
H    -6.398000000     2.797000000     2.207000000
O    -5.603000000     1.281000000     2.268000000
H    -5.334000000     1.192000000     1.354000000
H    -4.785000000     1.247000000     2.763000000
O    -3.467000000     5.334000000     1.533000000
H    -2.934000000     4.826000000     0.921000000
H    -2.921000000     6.086000000     1.759000000
O     5.102000000    -2.864000000    -1.823000000
H     4.466000000    -2.278000000    -1.414000000
H     5.631000000    -3.189000000    -1.095000000
O    -2.152000000    -4.913000000    -5.126000000
H    -1.208000000    -4.835000000    -5.263000000
H    -2.348000000    -4.272000000    -4.443000000
O    -2.880000000    -3.935000000    -0.185000000
H    -2.360000000    -3.359000000     0.376000000
H    -3.787000000    -3.748000000     0.055000000
O     0.470000000    -2.850000000     3.663000000
H    -0.061000000    -3.351000000     4.282000000
H     1.364000000    -2.927000000     3.996000000
O     6.355000000     2.088000000     1.742000000
H     6.026000000     2.122000000     2.640000000
H     6.920000000     2.856000000     1.664000000
O    -2.343000000    -2.882000000    -3.091000000
H    -2.319000000    -3.459000000    -2.327000000
H    -3.243000000    -2.557000000    -3.116000000
O     6.395000000    -2.953000000    -4.225000000
H     7.166000000    -3.084000000    -3.673000000
H     5.655000000    -3.021000000    -3.622000000
O     1.609000000     2.425000000     4.340000000
H     1.330000000     2.235000000     5.236000000
H     1.798000000     1.567000000     3.961000000
O     3.598000000    -3.710000000     1.414000000
H     3.389000000    -2.962000000     0.855000000
H     2.881000000    -4.327000000     1.267000000
O    -5.481000000    -3.557000000     1.273000000
H    -6.427000000    -3.459000000     1.162000000
H    -5.195000000    -2.721000000     1.641000000
O     0.926000000    -0.904000000     6.456000000
H     1.053000000     0.036000000     6.583000000
H     0.700000000    -1.235000000     7.325000000
O     0.594000000     2.165000000    -2.411000000
H     0.191000000     1.451000000    -1.918000000
H     0.796000000     1.782000000    -3.265000000
O    -5.047000000    -2.228000000    -4.054000000
H    -4.617000000    -1.556000000    -4.584000000
H    -5.579000000    -2.721000000    -4.679000000
O    -1.450000000     4.727000000    -0.210000000
H    -0.964000000     5.549000000    -0.140000000
H    -0.839000000     4.124000000    -0.635000000
O     3.027000000    -3.835000000     4.577000000
H     3.125000000    -3.771000000     3.627000000
H     3.543000000    -4.603000000     4.820000000
O    -6.220000000     0.142000000    -0.183000000
H    -7.039000000     0.432000000     0.219000000
H    -6.367000000    -0.782000000    -0.386000000
O     1.596000000    -5.564000000     0.454000000
H     1.819000000    -6.375000000    -0.004000000
H     0.710000000    -5.358000000     0.158000000
O     4.886000000     2.988000000    -0.799000000
H     5.266000000     2.413000000    -0.135000000
H     3.977000000     3.106000000    -0.522000000
O    -4.019000000    -1.643000000     2.979000000
H    -3.261000000    -1.556000000     2.401000000
H    -3.950000000    -0.899000000     3.578000000
O    -3.541000000     2.981000000     3.475000000
H    -3.436000000     3.812000000     3.012000000
H    -3.099000000     3.116000000     4.313000000
O     5.436000000    -1.535000000     3.325000000
H     4.720000000    -1.504000000     2.691000000
H     5.558000000    -0.624000000     3.594000000
O    -4.084000000     0.365000000    -5.127000000
H    -4.465000000     1.036000000    -4.560000000
H    -4.759000000     0.193000000    -5.783000000
O     2.852000000     0.071000000     3.870000000
H     3.193000000    -0.041000000     2.983000000
H     2.173000000    -0.599000000     3.952000000
O     5.802000000     0.025000000    -0.021000000
H     5.658000000     0.569000000     0.754000000
H     4.963000000    -0.411000000    -0.166000000
O     2.886000000    -4.762000000    -2.929000000
H     3.553000000    -4.347000000    -2.381000000
H     2.581000000    -4.062000000    -3.505000000
O     6.052000000     0.698000000     4.576000000
H     6.830000000     1.255000000     4.543000000
H     6.026000000     0.376000000     5.477000000
O     4.352000000     4.082000000     4.400000000
H     4.344000000     3.690000000     5.273000000
H     4.029000000     3.389000000     3.824000000
O    -6.482000000    -2.277000000    -1.552000000
H    -6.381000000    -3.078000000    -1.039000000
H    -5.948000000    -2.423000000    -2.333000000
O     2.645000000    -2.908000000    -4.713000000
H     1.923000000    -2.368000000    -4.391000000
H     3.299000000    -2.278000000    -5.017000000
O     2.244000000     3.296000000     1.121000000
H     1.609000000     2.867000000     0.547000000
H     1.717000000     3.653000000     1.836000000
O     8.082000000    -2.198000000     0.510000000
H     7.563000000    -2.970000000     0.284000000
H     7.487000000    -1.461000000     0.369000000
O    -1.143000000     0.549000000    -4.892000000
H    -2.096000000     0.457000000    -4.894000000
H    -0.948000000     1.034000000    -5.694000000
O     5.683000000    -0.419000000    -3.412000000
H     5.174000000    -0.924000000    -2.779000000
H     6.447000000    -0.966000000    -3.597000000
O     3.416000000     1.317000000     6.496000000
H     3.120000000     0.868000000     5.705000000
H     4.088000000     0.742000000     6.861000000
