144
-2807.89099
O    -0.363000000     4.877000000    -3.624000000
H    -0.056000000     4.081000000    -4.059000000
H     0.059000000     4.858000000    -2.765000000
O     2.802000000    -5.477000000     6.587000000
H     2.169000000    -5.331000000     5.885000000
H     2.913000000    -6.428000000     6.616000000
O     4.329000000    -1.354000000     3.122000000
H     4.893000000    -0.780000000     2.604000000
H     3.861000000    -1.880000000     2.473000000
O    -2.814000000     3.549000000     2.651000000
H    -3.504000000     3.651000000     1.996000000
H    -3.029000000     2.732000000     3.101000000
O    -3.113000000    -3.770000000     2.943000000
H    -2.213000000    -3.894000000     3.243000000
H    -3.646000000    -3.879000000     3.731000000
O     0.116000000     2.392000000    -4.492000000
H     0.537000000     1.545000000    -4.640000000
H    -0.805000000     2.243000000    -4.707000000
O     0.832000000     3.182000000    -7.050000000
H     0.302000000     3.409000000    -6.286000000
H     1.194000000     2.321000000    -6.843000000
O     4.114000000     4.635000000    -2.141000000
H     3.591000000     4.142000000    -1.510000000
H     4.352000000     5.439000000    -1.680000000
O    -2.843000000    -6.281000000     1.185000000
H    -2.411000000    -7.115000000     1.367000000
H    -2.127000000    -5.678000000     0.985000000
O     2.254000000     0.878000000    -6.307000000
H     2.633000000     0.659000000    -5.455000000
H     2.311000000     0.065000000    -6.810000000
O     2.904000000     4.627000000     0.550000000
H     3.746000000     4.865000000     0.938000000
H     2.529000000     3.993000000     1.162000000
O     5.039000000     2.243000000     3.347000000
H     4.581000000     1.883000000     4.107000000
H     4.633000000     1.811000000     2.596000000
O     3.166000000     0.246000000    -3.595000000
H     2.215000000     0.177000000    -3.684000000
H     3.296000000     0.685000000    -2.754000000
O    -4.606000000     3.335000000     0.770000000
H    -5.015000000     2.804000000     0.087000000
H    -5.256000000     3.364000000     1.472000000
O     1.319000000    -6.718000000    -0.292000000
H     2.059000000    -6.112000000    -0.337000000
H     0.887000000    -6.633000000    -1.142000000
O     0.854000000    -7.738000000     2.403000000
H     1.235000000    -7.182000000     1.724000000
H     0.714000000    -7.149000000     3.145000000
O    -5.786000000     1.655000000    -0.812000000
H    -6.271000000     2.240000000    -1.394000000
H    -5.401000000     1.002000000    -1.396000000
O     0.296000000    -1.702000000     6.270000000
H     1.144000000    -1.269000000     6.172000000
H     0.253000000    -2.314000000     5.535000000
O    -0.478000000    -3.465000000     4.105000000
H     0.132000000    -3.350000000     3.376000000
H    -0.148000000    -4.231000000     4.575000000
O     2.892000000    -1.135000000     5.353000000
H     3.416000000    -1.864000000     5.685000000
H     3.226000000    -0.984000000     4.468000000
O     2.387000000     1.822000000     1.425000000
H     2.089000000     1.883000000     2.333000000
H     1.584000000     1.698000000     0.918000000
O     4.737000000    -1.019000000    -0.326000000
H     5.269000000    -1.513000000    -0.950000000
H     4.227000000    -1.685000000     0.135000000
O     0.404000000    -0.528000000    -4.476000000
H     0.378000000    -1.406000000    -4.096000000
H    -0.100000000    -0.602000000    -5.286000000
O    -0.993000000     3.783000000     4.679000000
H    -0.475000000     2.988000000     4.810000000
H    -1.411000000     3.659000000     3.827000000
O    -5.279000000    -1.529000000    -1.440000000
H    -5.229000000    -2.485000000    -1.473000000
H    -5.076000000    -1.310000000    -0.531000000
O     5.416000000    -3.580000000    -1.699000000
H     4.989000000    -3.407000000    -2.538000000
H     6.158000000    -4.144000000    -1.919000000
O    -2.028000000     6.905000000    -2.199000000
H    -1.269000000     6.367000000    -1.976000000
H    -2.769000000     6.454000000    -1.794000000
O     1.900000000    -5.076000000     3.208000000
H     1.720000000    -4.263000000     2.737000000
H     2.693000000    -5.421000000     2.798000000
O    -3.573000000     1.409000000     4.232000000
H    -4.365000000     0.963000000     4.533000000
H    -2.995000000     0.702000000     3.946000000
O     3.207000000    -4.528000000    -0.124000000
H     4.116000000    -4.343000000    -0.357000000
H     2.961000000    -3.815000000     0.466000000
O    -0.749000000    -2.592000000    -2.912000000
H    -1.379000000    -1.894000000    -3.089000000
H    -1.288000000    -3.366000000    -2.753000000
O    -0.636000000     4.592000000     1.392000000
H    -1.434000000     4.363000000     1.869000000
H    -0.435000000     5.483000000     1.676000000
O    -0.337000000    -5.003000000     1.432000000
H     0.199000000    -5.626000000     0.940000000
H     0.190000000    -4.205000000     1.460000000
O    -4.094000000     5.782000000    -0.374000000
H    -4.993000000     5.932000000    -0.666000000
H    -4.114000000     4.911000000     0.024000000
O    -3.417000000    -1.537000000     0.907000000
H    -3.242000000    -2.467000000     1.053000000
H    -2.562000000    -1.162000000     0.697000000
O     3.962000000    -3.288000000    -4.421000000
H     3.222000000    -3.114000000    -5.003000000
H     4.611000000    -2.624000000    -4.654000000
O    -1.896000000    -0.850000000     4.457000000
H    -1.476000000    -1.642000000     4.121000000
H    -2.469000000    -1.162000000     5.157000000
O    -2.388000000     2.771000000    -5.483000000
H    -3.036000000     2.067000000    -5.454000000
H    -2.155000000     2.843000000    -6.408000000
O     6.277000000    -2.484000000     4.712000000
H     6.401000000    -1.661000000     5.184000000
H     5.500000000    -2.336000000     4.173000000
O    -5.424000000    -1.036000000     3.153000000
H    -5.130000000    -0.912000000     4.055000000
H    -4.618000000    -1.041000000     2.637000000
O     0.640000000     5.030000000    -1.114000000
H     1.457000000     5.256000000    -0.671000000
H     0.101000000     4.628000000    -0.433000000
O    -0.172000000     1.182000000     5.382000000
H    -0.845000000     0.607000000     5.017000000
H     0.037000000     0.795000000     6.233000000
O     3.767000000     1.580000000    -1.055000000
H     3.388000000     1.875000000    -0.227000000
H     4.088000000     0.697000000    -0.870000000
O    -5.895000000    -0.405000000    -3.837000000
H    -6.220000000     0.463000000    -3.601000000
H    -5.758000000    -0.846000000    -2.999000000
O     2.202000000    -4.703000000    -2.820000000
H     2.699000000    -4.258000000    -3.506000000
H     2.506000000    -4.301000000    -2.006000000
O     6.415000000    -0.179000000     1.616000000
H     7.065000000     0.365000000     1.170000000
H     5.924000000    -0.595000000     0.908000000
O     2.038000000     2.079000000     4.109000000
H     2.764000000     1.839000000     4.684000000
H     1.279000000     1.631000000     4.482000000
O    -3.278000000     4.717000000    -3.699000000
H    -2.971000000     3.963000000    -4.203000000
H    -2.476000000     5.143000000    -3.395000000
