144
-2834.59623
O    -4.144000000    -2.744000000    -0.277000000
H    -3.498000000    -2.583000000     0.410000000
H    -4.989000000    -2.596000000     0.149000000
O     5.346000000     1.080000000    -1.688000000
H     6.192000000     1.049000000    -2.135000000
H     4.820000000     1.684000000    -2.212000000
O    -0.050000000     4.472000000    -0.247000000
H     0.589000000     4.782000000    -0.889000000
H    -0.286000000     5.253000000     0.252000000
O     4.936000000     3.283000000     1.352000000
H     4.620000000     3.102000000     2.238000000
H     4.163000000     3.592000000     0.881000000
O     2.422000000     1.680000000     5.486000000
H     1.769000000     2.185000000     5.969000000
H     2.609000000     0.929000000     6.049000000
O    -1.895000000     2.851000000     0.773000000
H    -1.490000000     2.550000000     1.586000000
H    -1.235000000     3.416000000     0.371000000
O    -1.511000000    -5.715000000     4.694000000
H    -0.976000000    -5.155000000     4.131000000
H    -0.904000000    -6.382000000     5.015000000
O     0.292000000    -5.294000000     2.406000000
H     0.964000000    -5.973000000     2.363000000
H     0.638000000    -4.579000000     1.871000000
O    -4.885000000    -0.167000000     0.975000000
H    -4.506000000    -0.222000000     1.853000000
H    -4.947000000     0.772000000     0.800000000
O    -5.726000000    -3.123000000     3.184000000
H    -6.592000000    -3.384000000     3.498000000
H    -5.795000000    -3.163000000     2.230000000
O    -1.853000000    -4.666000000    -0.159000000
H    -2.541000000    -3.999000000    -0.171000000
H    -1.267000000    -4.392000000     0.546000000
O    -2.733000000    -7.150000000     2.378000000
H    -2.246000000    -6.481000000     2.860000000
H    -3.597000000    -6.762000000     2.238000000
O     5.020000000    -1.593000000    -0.941000000
H     4.120000000    -1.695000000    -1.250000000
H     5.173000000    -0.649000000    -0.955000000
O     3.992000000     3.095000000    -3.302000000
H     4.210000000     2.966000000    -4.225000000
H     3.121000000     3.493000000    -3.315000000
O    -7.541000000    -0.534000000     1.200000000
H    -7.740000000     0.289000000     1.648000000
H    -6.612000000    -0.682000000     1.375000000
O     2.286000000     4.448000000     1.560000000
H     2.132000000     4.332000000     2.498000000
H     1.412000000     4.444000000     1.171000000
O    -0.948000000    -2.833000000    -7.005000000
H    -0.858000000    -2.418000000    -6.147000000
H    -0.253000000    -2.444000000    -7.534000000
O     4.457000000     2.508000000     3.984000000
H     5.116000000     1.968000000     4.420000000
H     3.632000000     2.263000000     4.403000000
O    -1.069000000    -4.893000000    -2.694000000
H    -1.878000000    -4.658000000    -3.147000000
H    -1.323000000    -4.970000000    -1.774000000
O     6.862000000     3.194000000    -2.785000000
H     6.067000000     3.448000000    -2.316000000
H     7.023000000     3.917000000    -3.392000000
O    -0.339000000     3.128000000    -5.666000000
H    -1.205000000     2.884000000    -5.992000000
H    -0.316000000     2.791000000    -4.771000000
O     3.753000000     6.482000000     0.142000000
H     4.056000000     6.197000000    -0.720000000
H     3.583000000     5.669000000     0.617000000
O     4.059000000    -3.036000000    -4.242000000
H     3.776000000    -2.770000000    -3.367000000
H     4.944000000    -3.376000000    -4.115000000
O    -2.997000000     1.150000000    -1.437000000
H    -2.568000000     1.749000000    -0.826000000
H    -2.856000000     0.282000000    -1.060000000
O     1.821000000    -2.628000000     4.748000000
H     2.181000000    -2.305000000     3.922000000
H     2.429000000    -3.315000000     5.022000000
O    -2.918000000     1.435000000     2.846000000
H    -2.708000000     0.502000000     2.821000000
H    -2.344000000     1.791000000     3.525000000
O    -2.187000000     2.499000000     6.465000000
H    -2.961000000     2.039000000     6.141000000
H    -1.575000000     1.802000000     6.702000000
O    -4.488000000     0.971000000     5.552000000
H    -4.347000000     0.048000000     5.343000000
H    -5.265000000     0.974000000     6.112000000
O     2.145000000     4.400000000     4.523000000
H     2.990000000     3.952000000     4.505000000
H     1.636000000     3.927000000     5.182000000
O     4.453000000     0.241000000     1.981000000
H     5.176000000    -0.371000000     1.844000000
H     4.810000000     1.094000000     1.733000000
O    -0.566000000     0.182000000     7.135000000
H    -0.318000000    -0.300000000     7.924000000
H    -0.658000000    -0.492000000     6.462000000
O    -0.884000000     3.368000000     3.982000000
H    -0.679000000     3.392000000     4.917000000
H    -1.313000000     4.206000000     3.809000000
O    -3.387000000    -3.813000000    -3.469000000
H    -3.548000000    -3.713000000    -4.407000000
H    -4.182000000    -3.477000000    -3.053000000
O    -1.842000000    -1.603000000    -4.612000000
H    -1.913000000    -0.649000000    -4.573000000
H    -2.633000000    -1.920000000    -4.175000000
O     1.967000000     4.438000000    -6.202000000
H     1.517000000     5.282000000    -6.227000000
H     1.261000000     3.791000000    -6.192000000
O    -3.918000000    -2.725000000     7.588000000
H    -3.993000000    -2.218000000     6.780000000
H    -4.160000000    -2.110000000     8.281000000
O     1.833000000    -3.765000000     0.749000000
H     1.551000000    -3.504000000    -0.127000000
H     2.155000000    -2.956000000     1.148000000
O     2.549000000    -2.104000000    -1.823000000
H     1.954000000    -1.532000000    -1.339000000
H     2.018000000    -2.451000000    -2.539000000
O    -5.953000000    -4.079000000    -2.504000000
H    -5.814000000    -5.016000000    -2.364000000
H    -5.502000000    -3.658000000    -1.772000000
O     2.416000000    -1.581000000     2.066000000
H     3.155000000    -0.974000000     2.038000000
H     1.663000000    -1.056000000     1.794000000
O    -1.909000000     1.072000000    -4.066000000
H    -1.884000000     1.174000000    -3.115000000
H    -2.842000000     1.040000000    -4.279000000
O     0.437000000    -2.659000000    -3.695000000
H    -0.032000000    -3.444000000    -3.415000000
H    -0.236000000    -2.105000000    -4.090000000
O    -1.154000000    -2.792000000     7.867000000
H    -2.102000000    -2.812000000     7.732000000
H    -0.794000000    -2.568000000     7.009000000
O     2.077000000     6.359000000    -3.116000000
H     2.196000000     6.673000000    -4.012000000
H     2.931000000     6.483000000    -2.702000000
O    -5.233000000    -5.817000000     2.893000000
H    -4.948000000    -4.925000000     3.091000000
H    -5.879000000    -6.018000000     3.570000000
O    -4.969000000     2.709000000     1.262000000
H    -4.396000000     3.182000000     0.659000000
H    -4.371000000     2.254000000     1.854000000
O    -4.116000000    -1.555000000     4.824000000
H    -4.704000000    -2.115000000     4.318000000
H    -3.292000000    -1.573000000     4.338000000
O    -0.847000000    -1.894000000     5.423000000
H    -1.289000000    -1.553000000     4.645000000
H    -0.008000000    -2.220000000     5.098000000
