144
-2806.21095
O     1.732000000    -1.470000000    -3.766000000
H     1.947000000    -1.007000000    -4.576000000
H     1.323000000    -2.285000000    -4.057000000
O    -3.851000000    -5.222000000    -4.849000000
H    -3.372000000    -4.666000000    -4.233000000
H    -3.348000000    -6.036000000    -4.878000000
O    -5.835000000     2.774000000    -4.928000000
H    -6.213000000     2.146000000    -5.543000000
H    -4.972000000     2.415000000    -4.719000000
O    -3.296000000    -4.393000000    -0.777000000
H    -3.149000000    -4.002000000    -1.638000000
H    -4.001000000    -3.872000000    -0.394000000
O     0.592000000    -3.738000000    -4.729000000
H     1.016000000    -4.495000000    -4.324000000
H     0.356000000    -4.038000000    -5.608000000
O    -5.624000000     0.551000000    -0.636000000
H    -6.347000000     0.510000000    -1.262000000
H    -5.119000000     1.319000000    -0.905000000
O     4.075000000    -3.360000000     4.812000000
H     3.184000000    -3.079000000     5.018000000
H     4.446000000    -2.632000000     4.312000000
O     0.821000000     3.378000000     3.703000000
H     1.490000000     3.900000000     4.145000000
H     1.314000000     2.792000000     3.129000000
O     3.099000000     4.918000000     4.100000000
H     4.042000000     4.828000000     4.240000000
H     2.955000000     4.576000000     3.217000000
O     1.732000000     1.061000000    -2.341000000
H     1.626000000     0.591000000    -3.169000000
H     1.303000000     0.502000000    -1.693000000
O    -4.111000000    -6.589000000     0.211000000
H    -3.727000000    -5.833000000    -0.232000000
H    -4.166000000    -7.262000000    -0.468000000
O     4.154000000    -3.051000000    -1.413000000
H     3.348000000    -2.676000000    -1.768000000
H     4.662000000    -2.294000000    -1.121000000
O    -2.131000000    -3.457000000    -3.536000000
H    -1.580000000    -3.740000000    -2.806000000
H    -1.516000000    -3.285000000    -4.249000000
O     5.473000000     3.006000000    -1.633000000
H     6.025000000     3.788000000    -1.641000000
H     6.077000000     2.288000000    -1.439000000
O     3.407000000     6.119000000    -0.135000000
H     3.284000000     5.170000000    -0.088000000
H     3.715000000     6.364000000     0.737000000
O    -5.842000000    -0.626000000    -4.775000000
H    -5.026000000    -0.395000000    -4.330000000
H    -6.103000000    -1.457000000    -4.378000000
O    -3.672000000     1.164000000    -3.960000000
H    -2.850000000     0.931000000    -4.393000000
H    -3.402000000     1.560000000    -3.131000000
O    -4.481000000    -0.268000000     1.659000000
H    -5.122000000     0.055000000     2.291000000
H    -4.916000000    -0.183000000     0.811000000
O     3.703000000     3.865000000     1.302000000
H     3.153000000     3.187000000     1.695000000
H     4.369000000     3.381000000     0.814000000
O     7.618000000     0.092000000     2.176000000
H     6.818000000     0.424000000     2.583000000
H     8.278000000     0.143000000     2.867000000
O    -7.784000000     0.389000000    -2.711000000
H    -8.730000000     0.246000000    -2.675000000
H    -7.450000000    -0.346000000    -3.226000000
O    -5.184000000    -2.768000000     0.239000000
H    -4.703000000    -2.040000000     0.632000000
H    -6.068000000    -2.425000000     0.104000000
O    -2.005000000     4.094000000     0.371000000
H    -1.207000000     4.279000000    -0.124000000
H    -1.713000000     4.035000000     1.281000000
O     4.972000000    -1.778000000     2.809000000
H     5.621000000    -1.840000000     2.108000000
H     4.298000000    -1.194000000     2.461000000
O    -1.452000000     1.727000000    -5.594000000
H    -0.860000000     1.157000000    -6.086000000
H    -1.718000000     2.396000000    -6.224000000
O    -1.692000000     4.681000000     3.440000000
H    -2.222000000     3.901000000     3.600000000
H    -0.855000000     4.494000000     3.866000000
O     2.911000000     3.782000000    -2.050000000
H     2.443000000     3.082000000    -2.504000000
H     3.794000000     3.435000000    -1.920000000
O     4.282000000    -0.260000000     6.841000000
H     3.375000000    -0.111000000     7.107000000
H     4.309000000     0.006000000     5.922000000
O     7.190000000     0.676000000    -1.033000000
H     7.280000000     0.284000000    -0.164000000
H     6.548000000     0.125000000    -1.479000000
O     0.123000000     3.995000000    -1.714000000
H     1.045000000     3.996000000    -1.457000000
H     0.035000000     3.230000000    -2.284000000
O    -1.302000000    -6.364000000    -4.060000000
H    -1.171000000    -7.282000000    -3.821000000
H    -0.948000000    -5.871000000    -3.320000000
O    -1.881000000    -3.843000000     2.008000000
H    -1.175000000    -4.258000000     2.502000000
H    -1.985000000    -4.393000000     1.231000000
O    -3.318000000    -2.263000000     3.578000000
H    -3.825000000    -1.589000000     3.125000000
H    -2.745000000    -2.626000000     2.902000000
O     4.489000000     0.249000000    -2.819000000
H     3.670000000     0.547000000    -2.421000000
H     4.591000000     0.799000000    -3.596000000
O    -0.388000000    -1.172000000     2.417000000
H    -0.794000000    -2.027000000     2.275000000
H    -0.273000000    -0.812000000     1.538000000
O     4.059000000     3.032000000     7.646000000
H     4.994000000     3.169000000     7.493000000
H     3.737000000     2.647000000     6.831000000
O     4.389000000    -5.620000000    -1.715000000
H     5.165000000    -5.893000000    -1.225000000
H     4.437000000    -4.664000000    -1.726000000
O     0.417000000     1.042000000     5.939000000
H     0.408000000     1.758000000     5.303000000
H    -0.147000000     0.372000000     5.553000000
O    -2.800000000     2.157000000     3.562000000
H    -2.587000000     1.336000000     3.119000000
H    -2.972000000     1.903000000     4.469000000
O    -5.705000000     2.476000000     3.468000000
H    -4.889000000     2.277000000     3.008000000
H    -5.446000000     3.079000000     4.165000000
O     1.869000000    -5.385000000    -0.064000000
H     1.869000000    -6.013000000     0.659000000
H     2.782000000    -5.346000000    -0.346000000
O     5.306000000     1.402000000     3.095000000
H     4.822000000     1.437000000     3.920000000
H     4.752000000     0.882000000     2.513000000
O     1.676000000    -1.295000000     4.055000000
H     0.963000000    -1.276000000     3.416000000
H     2.471000000    -1.202000000     3.530000000
O    -0.201000000    -4.811000000    -2.006000000
H     0.008000000    -5.136000000    -1.130000000
H     0.651000000    -4.655000000    -2.413000000
O     2.897000000     1.730000000     4.950000000
H     2.734000000     1.851000000     4.014000000
H     2.269000000     1.060000000     5.218000000
O     6.576000000    -3.028000000     0.461000000
H     5.948000000    -3.658000000     0.107000000
H     6.829000000    -2.493000000    -0.292000000
O    -3.344000000     2.646000000    -1.513000000
H    -3.869000000     3.371000000    -1.852000000
H    -2.888000000     3.014000000    -0.757000000
O     7.059000000     3.570000000     2.839000000
H     6.741000000     3.954000000     3.656000000
H     6.578000000     2.747000000     2.758000000
